REMARK VINA RESULT:      -7.1     34.922     37.328
REMARK  10 active torsions:
REMARK  status: ('A' for Active; 'I' for Inactive)
REMARK    1  A    between atoms: O_3  and  C_8 
REMARK    2  A    between atoms: O_4  and  C_9 
REMARK    3  A    between atoms: O_5  and  C_10 
REMARK    4  A    between atoms: O_6  and  C_14 
REMARK    5  A    between atoms: O_7  and  C_26 
REMARK    6  A    between atoms: O_7  and  C_27 
REMARK    7  A    between atoms: C_11  and  C_13 
REMARK    8  A    between atoms: C_12  and  C_14 
REMARK    9  A    between atoms: C_17  and  C_19 
REMARK   10  A    between atoms: C_19  and  C_21 
ROOT
HETATM    1 Cl   UNK     0      21.628  70.814  41.896  0.00  0.00    -0.084 Cl
HETATM    2  C   UNK     0      23.662  68.504  38.595  0.00  0.00    -0.026 A 
HETATM    3  C   UNK     0      22.309  68.819  38.478  0.00  0.00     0.019 A 
HETATM    4  C   UNK     0      24.377  68.902  39.723  0.00  0.00     0.011 A 
HETATM    5  C   UNK     0      21.670  69.532  39.492  0.00  0.00    -0.032 A 
HETATM    6  C   UNK     0      23.739  69.614  40.737  0.00  0.00     0.025 A 
HETATM    7  C   UNK     0      22.385  69.930  40.622  0.00  0.00     0.040 A 
ENDROOT
BRANCH   5   8
HETATM    8  C   UNK     0      20.218  69.851  39.330  0.00  0.00     0.078 C 
BRANCH   8   9
HETATM    9  C   UNK     0      19.325  68.629  39.287  0.00  0.00    -0.054 A 
HETATM   10  C   UNK     0      19.323  67.756  40.361  0.00  0.00     0.010 A 
HETATM   11  C   UNK     0      18.501  66.630  40.320  0.00  0.00     0.037 A 
HETATM   12  C   UNK     0      17.694  66.396  39.206  0.00  0.00     0.068 A 
HETATM   13  C   UNK     0      17.710  67.286  38.133  0.00  0.00     0.037 A 
HETATM   14  C   UNK     0      18.533  68.413  38.174  0.00  0.00     0.010 A 
BRANCH  12  15
HETATM   15  O   UNK     0      16.891  65.297  39.168  0.00  0.00    -0.352 OA
BRANCH  15  16
HETATM   16  C   UNK     0      16.273  64.988  37.920  0.00  0.00     0.171 C 
HETATM   17  C   UNK     0      16.833  63.679  37.404  0.00  0.00     0.034 C 
ENDBRANCH  15  16
ENDBRANCH  12  15
ENDBRANCH   8   9
ENDBRANCH   5   8
BRANCH   2  18
HETATM   18  C   UNK     0      24.357  67.729  37.492  0.00  0.00     0.186 C 
HETATM   19  O   UNK     0      25.163  66.721  38.110  0.00  0.00    -0.368 OA
HETATM   20  C   UNK     0      25.798  65.863  37.162  0.00  0.00     0.177 C 
HETATM   21  C   UNK     0      26.758  66.670  36.285  0.00  0.00     0.180 C 
HETATM   22  C   UNK     0      26.026  67.822  35.597  0.00  0.00     0.181 C 
HETATM   23  C   UNK     0      25.212  68.643  36.600  0.00  0.00     0.182 C 
BRANCH  20  24
HETATM   24  C   UNK     0      26.526  64.775  37.944  0.00  0.00     0.198 C 
BRANCH  24  25
HETATM   25  O   UNK     0      27.857  65.201  38.178  0.00  0.00    -0.398 OA
HETATM   26  H   UNK     0      28.180  64.736  38.968  0.00  0.00     0.209 HD
ENDBRANCH  24  25
ENDBRANCH  20  24
BRANCH  21  27
HETATM   27  O   UNK     0      27.324  65.813  35.296  0.00  0.00    -0.390 OA
HETATM   28  H   UNK     0      26.738  65.822  34.521  0.00  0.00     0.210 HD
ENDBRANCH  21  27
BRANCH  22  29
HETATM   29  O   UNK     0      27.005  68.660  34.980  0.00  0.00    -0.390 OA
HETATM   30  H   UNK     0      27.825  68.576  35.495  0.00  0.00     0.210 HD
ENDBRANCH  22  29
BRANCH  23  31
HETATM   31  O   UNK     0      24.346  69.523  35.884  0.00  0.00    -0.390 OA
HETATM   32  H   UNK     0      23.430  69.230  36.029  0.00  0.00     0.210 HD
ENDBRANCH  23  31
ENDBRANCH   2  18
TORSDOF 10
