REMARK VINA RESULT:      -7.5     14.868     16.948
REMARK  10 active torsions:
REMARK  status: ('A' for Active; 'I' for Inactive)
REMARK    1  A    between atoms: O_3  and  C_8 
REMARK    2  A    between atoms: O_4  and  C_9 
REMARK    3  A    between atoms: O_5  and  C_10 
REMARK    4  A    between atoms: O_6  and  C_14 
REMARK    5  A    between atoms: O_7  and  C_26 
REMARK    6  A    between atoms: O_7  and  C_27 
REMARK    7  A    between atoms: C_11  and  C_13 
REMARK    8  A    between atoms: C_12  and  C_14 
REMARK    9  A    between atoms: C_17  and  C_19 
REMARK   10  A    between atoms: C_19  and  C_21 
ROOT
HETATM    1 Cl   UNK     0      40.216  62.054  57.259  0.00  0.00    -0.084 Cl
HETATM    2  C   UNK     0      37.761  64.805  54.657  0.00  0.00    -0.026 A 
HETATM    3  C   UNK     0      38.315  63.652  54.103  0.00  0.00     0.019 A 
HETATM    4  C   UNK     0      37.965  65.102  56.003  0.00  0.00     0.011 A 
HETATM    5  C   UNK     0      39.076  62.794  54.897  0.00  0.00    -0.032 A 
HETATM    6  C   UNK     0      38.726  64.245  56.798  0.00  0.00     0.025 A 
HETATM    7  C   UNK     0      39.281  63.091  56.245  0.00  0.00     0.040 A 
ENDROOT
BRANCH   5   8
HETATM    8  C   UNK     0      39.654  61.568  54.268  0.00  0.00     0.078 C 
BRANCH   8   9
HETATM    9  C   UNK     0      38.644  60.463  54.042  0.00  0.00    -0.054 A 
HETATM   10  C   UNK     0      38.501  59.926  52.775  0.00  0.00     0.010 A 
HETATM   11  C   UNK     0      37.569  58.910  52.568  0.00  0.00     0.037 A 
HETATM   12  C   UNK     0      36.796  58.445  53.632  0.00  0.00     0.068 A 
HETATM   13  C   UNK     0      36.954  58.998  54.903  0.00  0.00     0.037 A 
HETATM   14  C   UNK     0      37.885  60.016  55.110  0.00  0.00     0.010 A 
BRANCH  12  15
HETATM   15  O   UNK     0      35.888  57.450  53.430  0.00  0.00    -0.352 OA
BRANCH  15  16
HETATM   16  C   UNK     0      35.514  56.671  54.565  0.00  0.00     0.171 C 
HETATM   17  C   UNK     0      35.136  55.280  54.104  0.00  0.00     0.034 C 
ENDBRANCH  15  16
ENDBRANCH  12  15
ENDBRANCH   8   9
ENDBRANCH   5   8
BRANCH   2  18
HETATM   18  C   UNK     0      36.933  65.737  53.793  0.00  0.00     0.186 C 
HETATM   19  O   UNK     0      37.727  66.896  53.519  0.00  0.00    -0.368 OA
HETATM   20  C   UNK     0      37.083  67.810  52.631  0.00  0.00     0.177 C 
HETATM   21  C   UNK     0      35.796  68.340  53.267  0.00  0.00     0.180 C 
HETATM   22  C   UNK     0      34.869  67.189  53.656  0.00  0.00     0.181 C 
HETATM   23  C   UNK     0      35.611  66.127  54.472  0.00  0.00     0.182 C 
BRANCH  20  24
HETATM   24  C   UNK     0      38.071  68.933  52.333  0.00  0.00     0.198 C 
BRANCH  24  25
HETATM   25  O   UNK     0      37.725  69.521  51.092  0.00  0.00    -0.398 OA
HETATM   26  H   UNK     0      38.329  69.163  50.419  0.00  0.00     0.209 HD
ENDBRANCH  24  25
ENDBRANCH  20  24
BRANCH  21  27
HETATM   27  O   UNK     0      35.128  69.189  52.338  0.00  0.00    -0.390 OA
HETATM   28  H   UNK     0      34.183  69.199  52.565  0.00  0.00     0.210 HD
ENDBRANCH  21  27
BRANCH  22  29
HETATM   29  O   UNK     0      33.801  67.727  54.438  0.00  0.00    -0.390 OA
HETATM   30  H   UNK     0      33.946  68.686  54.505  0.00  0.00     0.210 HD
ENDBRANCH  22  29
BRANCH  23  31
HETATM   31  O   UNK     0      34.790  64.964  54.577  0.00  0.00    -0.390 OA
HETATM   32  H   UNK     0      34.265  65.038  55.391  0.00  0.00     0.210 HD
ENDBRANCH  23  31
ENDBRANCH   2  18
TORSDOF 10
