REMARK VINA RESULT:      -7.2      0.000      0.000
REMARK  10 active torsions:
REMARK  status: ('A' for Active; 'I' for Inactive)
REMARK    1  A    between atoms: O_3  and  C_8 
REMARK    2  A    between atoms: O_4  and  C_9 
REMARK    3  A    between atoms: O_5  and  C_10 
REMARK    4  A    between atoms: O_6  and  C_14 
REMARK    5  A    between atoms: O_7  and  C_26 
REMARK    6  A    between atoms: O_7  and  C_27 
REMARK    7  A    between atoms: C_11  and  C_13 
REMARK    8  A    between atoms: C_12  and  C_14 
REMARK    9  A    between atoms: C_17  and  C_19 
REMARK   10  A    between atoms: C_19  and  C_21 
ROOT
HETATM    1 Cl   UNK     0      39.934  59.296  56.458  0.00  0.00    -0.084 Cl
HETATM    2  C   UNK     0      37.324  62.971  56.237  0.00  0.00    -0.026 A 
HETATM    3  C   UNK     0      37.163  61.958  55.292  0.00  0.00     0.019 A 
HETATM    4  C   UNK     0      38.283  62.845  57.240  0.00  0.00     0.011 A 
HETATM    5  C   UNK     0      37.964  60.818  55.351  0.00  0.00    -0.032 A 
HETATM    6  C   UNK     0      39.085  61.706  57.298  0.00  0.00     0.025 A 
HETATM    7  C   UNK     0      38.925  60.692  56.354  0.00  0.00     0.040 A 
ENDROOT
BRANCH   5   8
HETATM    8  C   UNK     0      37.762  59.754  54.320  0.00  0.00     0.078 C 
BRANCH   8   9
HETATM    9  C   UNK     0      38.451  60.039  53.003  0.00  0.00    -0.054 A 
HETATM   10  C   UNK     0      39.831  60.149  52.973  0.00  0.00     0.010 A 
HETATM   11  C   UNK     0      40.464  60.414  51.759  0.00  0.00     0.037 A 
HETATM   12  C   UNK     0      39.710  60.562  50.595  0.00  0.00     0.068 A 
HETATM   13  C   UNK     0      38.321  60.448  50.646  0.00  0.00     0.037 A 
HETATM   14  C   UNK     0      37.686  60.184  51.860  0.00  0.00     0.010 A 
BRANCH  12  15
HETATM   15  O   UNK     0      40.330  60.818  49.411  0.00  0.00    -0.352 OA
BRANCH  15  16
HETATM   16  C   UNK     0      41.702  60.441  49.301  0.00  0.00     0.171 C 
HETATM   17  C   UNK     0      42.553  61.691  49.233  0.00  0.00     0.034 C 
ENDBRANCH  15  16
ENDBRANCH  12  15
ENDBRANCH   8   9
ENDBRANCH   5   8
BRANCH   2  18
HETATM   18  C   UNK     0      36.452  64.210  56.173  0.00  0.00     0.186 C 
HETATM   19  O   UNK     0      35.229  63.917  56.856  0.00  0.00    -0.368 OA
HETATM   20  C   UNK     0      34.359  65.046  56.942  0.00  0.00     0.177 C 
HETATM   21  C   UNK     0      33.944  65.496  55.540  0.00  0.00     0.180 C 
HETATM   22  C   UNK     0      35.171  65.798  54.681  0.00  0.00     0.181 C 
HETATM   23  C   UNK     0      36.179  64.646  54.725  0.00  0.00     0.182 C 
BRANCH  20  24
HETATM   24  C   UNK     0      33.156  64.634  57.784  0.00  0.00     0.198 C 
BRANCH  24  25
HETATM   25  O   UNK     0      32.223  63.977  56.945  0.00  0.00    -0.398 OA
HETATM   26  H   UNK     0      32.168  64.481  56.115  0.00  0.00     0.209 HD
ENDBRANCH  24  25
ENDBRANCH  20  24
BRANCH  21  27
HETATM   27  O   UNK     0      33.140  66.668  55.642  0.00  0.00    -0.390 OA
HETATM   28  H   UNK     0      32.287  66.414  56.035  0.00  0.00     0.210 HD
ENDBRANCH  21  27
BRANCH  22  29
HETATM   29  O   UNK     0      34.731  65.992  53.336  0.00  0.00    -0.390 OA
HETATM   30  H   UNK     0      34.854  66.932  53.123  0.00  0.00     0.210 HD
ENDBRANCH  22  29
BRANCH  23  31
HETATM   31  O   UNK     0      37.406  65.081  54.140  0.00  0.00    -0.390 OA
HETATM   32  H   UNK     0      38.030  64.335  54.158  0.00  0.00     0.210 HD
ENDBRANCH  23  31
ENDBRANCH   2  18
TORSDOF 10
