REMARK VINA RESULT:      -8.2      1.139      2.446
REMARK  10 active torsions:
REMARK  status: ('A' for Active; 'I' for Inactive)
REMARK    1  A    between atoms: O_3  and  C_8 
REMARK    2  A    between atoms: O_4  and  C_9 
REMARK    3  A    between atoms: O_5  and  C_10 
REMARK    4  A    between atoms: O_6  and  C_14 
REMARK    5  A    between atoms: O_7  and  C_26 
REMARK    6  A    between atoms: O_7  and  C_27 
REMARK    7  A    between atoms: C_11  and  C_13 
REMARK    8  A    between atoms: C_12  and  C_14 
REMARK    9  A    between atoms: C_17  and  C_19 
REMARK   10  A    between atoms: C_19  and  C_21 
ROOT
HETATM    1 Cl   UNK     0      48.273  54.188  56.409  0.00  0.00    -0.084 Cl
HETATM    2  C   UNK     0      47.972  55.033  60.832  0.00  0.00    -0.026 A 
HETATM    3  C   UNK     0      46.982  54.273  60.210  0.00  0.00     0.019 A 
HETATM    4  C   UNK     0      49.044  55.525  60.091  0.00  0.00     0.011 A 
HETATM    5  C   UNK     0      47.065  54.006  58.844  0.00  0.00    -0.032 A 
HETATM    6  C   UNK     0      49.127  55.259  58.724  0.00  0.00     0.025 A 
HETATM    7  C   UNK     0      48.138  54.498  58.101  0.00  0.00     0.040 A 
ENDROOT
BRANCH   5   8
HETATM    8  C   UNK     0      45.984  53.187  58.214  0.00  0.00     0.078 C 
BRANCH   8   9
HETATM    9  C   UNK     0      46.129  51.699  58.449  0.00  0.00    -0.054 A 
HETATM   10  C   UNK     0      45.059  50.865  58.174  0.00  0.00     0.010 A 
HETATM   11  C   UNK     0      45.193  49.494  58.392  0.00  0.00     0.037 A 
HETATM   12  C   UNK     0      46.395  48.979  58.880  0.00  0.00     0.068 A 
HETATM   13  C   UNK     0      47.461  49.835  59.151  0.00  0.00     0.037 A 
HETATM   14  C   UNK     0      47.328  51.207  58.934  0.00  0.00     0.010 A 
BRANCH  12  15
HETATM   15  O   UNK     0      46.525  47.640  59.091  0.00  0.00    -0.352 OA
BRANCH  15  16
HETATM   16  C   UNK     0      47.607  46.982  58.435  0.00  0.00     0.171 C 
HETATM   17  C   UNK     0      47.051  45.903  57.530  0.00  0.00     0.034 C 
ENDBRANCH  15  16
ENDBRANCH  12  15
ENDBRANCH   8   9
ENDBRANCH   5   8
BRANCH   2  18
HETATM   18  C   UNK     0      47.882  55.322  62.318  0.00  0.00     0.186 C 
HETATM   19  O   UNK     0      47.820  54.068  63.003  0.00  0.00    -0.368 OA
HETATM   20  C   UNK     0      47.825  54.212  64.423  0.00  0.00     0.177 C 
HETATM   21  C   UNK     0      46.584  54.984  64.877  0.00  0.00     0.180 C 
HETATM   22  C   UNK     0      46.502  56.339  64.176  0.00  0.00     0.181 C 
HETATM   23  C   UNK     0      46.663  56.194  62.660  0.00  0.00     0.182 C 
BRANCH  20  24
HETATM   24  C   UNK     0      47.871  52.811  65.026  0.00  0.00     0.198 C 
BRANCH  24  25
HETATM   25  O   UNK     0      48.110  51.880  63.985  0.00  0.00    -0.398 OA
HETATM   26  H   UNK     0      48.855  52.214  63.457  0.00  0.00     0.209 HD
ENDBRANCH  24  25
ENDBRANCH  20  24
BRANCH  21  27
HETATM   27  O   UNK     0      46.645  55.185  66.286  0.00  0.00    -0.390 OA
HETATM   28  H   UNK     0      45.815  55.606  66.566  0.00  0.00     0.210 HD
ENDBRANCH  21  27
BRANCH  22  29
HETATM   29  O   UNK     0      45.225  56.909  64.465  0.00  0.00    -0.390 OA
HETATM   30  H   UNK     0      45.376  57.703  65.004  0.00  0.00     0.210 HD
ENDBRANCH  22  29
BRANCH  23  31
HETATM   31  O   UNK     0      46.850  57.487  62.087  0.00  0.00    -0.390 OA
HETATM   32  H   UNK     0      46.053  57.708  61.576  0.00  0.00     0.210 HD
ENDBRANCH  23  31
ENDBRANCH   2  18
TORSDOF 10
