MODEL 1
REMARK VINA RESULT:      -7.4      0.000      0.000
REMARK  10 active torsions:
REMARK  status: ('A' for Active; 'I' for Inactive)
REMARK    1  A    between atoms: O_3  and  C_8 
REMARK    2  A    between atoms: O_4  and  C_9 
REMARK    3  A    between atoms: O_5  and  C_10 
REMARK    4  A    between atoms: O_6  and  C_14 
REMARK    5  A    between atoms: O_7  and  C_26 
REMARK    6  A    between atoms: O_7  and  C_27 
REMARK    7  A    between atoms: C_11  and  C_13 
REMARK    8  A    between atoms: C_12  and  C_14 
REMARK    9  A    between atoms: C_17  and  C_19 
REMARK   10  A    between atoms: C_19  and  C_21 
ROOT
HETATM    1 Cl   UNK     0      45.620  59.095  50.746  0.00  0.00    -0.084 Cl
HETATM    2  C   UNK     0      47.402  56.629  54.080  0.00  0.00    -0.026 A 
HETATM    3  C   UNK     0      46.707  57.798  54.388  0.00  0.00     0.019 A 
HETATM    4  C   UNK     0      47.541  56.228  52.753  0.00  0.00     0.011 A 
HETATM    5  C   UNK     0      46.153  58.568  53.366  0.00  0.00    -0.032 A 
HETATM    6  C   UNK     0      46.988  56.998  51.731  0.00  0.00     0.025 A 
HETATM    7  C   UNK     0      46.293  58.168  52.037  0.00  0.00     0.040 A 
ENDROOT
BRANCH   5   8
HETATM    8  C   UNK     0      45.416  59.815  53.736  0.00  0.00     0.078 C 
BRANCH   8   9
HETATM    9  C   UNK     0      46.318  60.960  54.145  0.00  0.00    -0.054 A 
HETATM   10  C   UNK     0      47.034  61.636  53.172  0.00  0.00     0.010 A 
HETATM   11  C   UNK     0      47.866  62.689  53.551  0.00  0.00     0.037 A 
HETATM   12  C   UNK     0      47.967  63.051  54.894  0.00  0.00     0.068 A 
HETATM   13  C   UNK     0      47.237  62.358  55.860  0.00  0.00     0.037 A 
HETATM   14  C   UNK     0      46.405  61.304  55.482  0.00  0.00     0.010 A 
BRANCH  12  15
HETATM   15  O   UNK     0      48.778  64.081  55.261  0.00  0.00    -0.352 OA
BRANCH  15  16
HETATM   16  C   UNK     0      48.198  65.111  56.061  0.00  0.00     0.171 C 
HETATM   17  C   UNK     0      47.285  65.951  55.194  0.00  0.00     0.034 C 
ENDBRANCH  15  16
ENDBRANCH  12  15
ENDBRANCH   8   9
ENDBRANCH   5   8
BRANCH   2  18
HETATM   18  C   UNK     0      48.004  55.792  55.192  0.00  0.00     0.186 C 
HETATM   19  O   UNK     0      46.977  55.549  56.158  0.00  0.00    -0.368 OA
HETATM   20  C   UNK     0      47.404  54.687  57.214  0.00  0.00     0.177 C 
HETATM   21  C   UNK     0      48.548  55.340  57.993  0.00  0.00     0.180 C 
HETATM   22  C   UNK     0      49.705  55.699  57.060  0.00  0.00     0.181 C 
HETATM   23  C   UNK     0      49.213  56.484  55.841  0.00  0.00     0.182 C 
BRANCH  20  24
HETATM   24  C   UNK     0      46.195  54.420  58.104  0.00  0.00     0.198 C 
BRANCH  24  25
HETATM   25  O   UNK     0      46.393  55.075  59.344  0.00  0.00    -0.398 OA
HETATM   26  H   UNK     0      45.976  54.532  60.034  0.00  0.00     0.209 HD
ENDBRANCH  24  25
ENDBRANCH  20  24
BRANCH  21  27
HETATM   27  O   UNK     0      49.012  54.435  58.992  0.00  0.00    -0.390 OA
HETATM   28  H   UNK     0      48.872  53.530  58.665  0.00  0.00     0.210 HD
ENDBRANCH  21  27
BRANCH  22  29
HETATM   29  O   UNK     0      50.634  56.496  57.795  0.00  0.00    -0.390 OA
HETATM   30  H   UNK     0      50.399  57.427  57.645  0.00  0.00     0.210 HD
ENDBRANCH  22  29
BRANCH  23  31
HETATM   31  O   UNK     0      50.267  56.558  54.881  0.00  0.00    -0.390 OA
HETATM   32  H   UNK     0      49.900  56.325  54.011  0.00  0.00     0.210 HD
ENDBRANCH  23  31
ENDBRANCH   2  18
TORSDOF 10
ENDMDL
MODEL 2
REMARK VINA RESULT:      -6.9      1.939      7.368
REMARK  10 active torsions:
REMARK  status: ('A' for Active; 'I' for Inactive)
REMARK    1  A    between atoms: O_3  and  C_8 
REMARK    2  A    between atoms: O_4  and  C_9 
REMARK    3  A    between atoms: O_5  and  C_10 
REMARK    4  A    between atoms: O_6  and  C_14 
REMARK    5  A    between atoms: O_7  and  C_26 
REMARK    6  A    between atoms: O_7  and  C_27 
REMARK    7  A    between atoms: C_11  and  C_13 
REMARK    8  A    between atoms: C_12  and  C_14 
REMARK    9  A    between atoms: C_17  and  C_19 
REMARK   10  A    between atoms: C_19  and  C_21 
ROOT
HETATM    1 Cl   UNK     0      48.789  58.310  49.761  0.00  0.00    -0.084 Cl
HETATM    2  C   UNK     0      47.470  60.887  53.223  0.00  0.00    -0.026 A 
HETATM    3  C   UNK     0      47.039  59.563  53.151  0.00  0.00     0.019 A 
HETATM    4  C   UNK     0      48.302  61.406  52.233  0.00  0.00     0.011 A 
HETATM    5  C   UNK     0      47.440  58.757  52.086  0.00  0.00    -0.032 A 
HETATM    6  C   UNK     0      48.702  60.601  51.167  0.00  0.00     0.025 A 
HETATM    7  C   UNK     0      48.272  59.276  51.094  0.00  0.00     0.040 A 
ENDROOT
BRANCH   5   8
HETATM    8  C   UNK     0      46.957  57.343  52.044  0.00  0.00     0.078 C 
BRANCH   8   9
HETATM    9  C   UNK     0      47.345  56.528  53.259  0.00  0.00    -0.054 A 
HETATM   10  C   UNK     0      48.461  55.712  53.197  0.00  0.00     0.010 A 
HETATM   11  C   UNK     0      48.816  54.960  54.316  0.00  0.00     0.037 A 
HETATM   12  C   UNK     0      48.051  55.037  55.480  0.00  0.00     0.068 A 
HETATM   13  C   UNK     0      46.930  55.866  55.524  0.00  0.00     0.037 A 
HETATM   14  C   UNK     0      46.574  56.618  54.404  0.00  0.00     0.010 A 
BRANCH  12  15
HETATM   15  O   UNK     0      48.401  54.304  56.573  0.00  0.00    -0.352 OA
BRANCH  15  16
HETATM   16  C   UNK     0      48.454  54.988  57.824  0.00  0.00     0.171 C 
HETATM   17  C   UNK     0      49.767  55.736  57.921  0.00  0.00     0.034 C 
ENDBRANCH  15  16
ENDBRANCH  12  15
ENDBRANCH   8   9
ENDBRANCH   5   8
BRANCH   2  18
HETATM   18  C   UNK     0      47.035  61.763  54.383  0.00  0.00     0.186 C 
HETATM   19  O   UNK     0      46.404  62.925  53.837  0.00  0.00    -0.368 OA
HETATM   20  C   UNK     0      45.867  63.786  54.841  0.00  0.00     0.177 C 
HETATM   21  C   UNK     0      46.991  64.316  55.734  0.00  0.00     0.180 C 
HETATM   22  C   UNK     0      47.784  63.163  56.349  0.00  0.00     0.181 C 
HETATM   23  C   UNK     0      48.217  62.153  55.283  0.00  0.00     0.182 C 
BRANCH  20  24
HETATM   24  C   UNK     0      45.130  64.916  54.129  0.00  0.00     0.198 C 
BRANCH  24  25
HETATM   25  O   UNK     0      45.998  66.032  54.037  0.00  0.00    -0.398 OA
HETATM   26  H   UNK     0      46.429  65.998  53.167  0.00  0.00     0.209 HD
ENDBRANCH  24  25
ENDBRANCH  20  24
BRANCH  21  27
HETATM   27  O   UNK     0      46.428  65.110  56.775  0.00  0.00    -0.390 OA
HETATM   28  H   UNK     0      46.894  65.964  56.786  0.00  0.00     0.210 HD
ENDBRANCH  21  27
BRANCH  22  29
HETATM   29  O   UNK     0      48.941  63.711  56.982  0.00  0.00    -0.390 OA
HETATM   30  H   UNK     0      49.718  63.386  56.497  0.00  0.00     0.210 HD
ENDBRANCH  22  29
BRANCH  23  31
HETATM   31  O   UNK     0      48.708  60.979  55.928  0.00  0.00    -0.390 OA
HETATM   32  H   UNK     0      48.263  60.210  55.534  0.00  0.00     0.210 HD
ENDBRANCH  23  31
ENDBRANCH   2  18
TORSDOF 10
ENDMDL
MODEL 3
REMARK VINA RESULT:      -6.8      3.879      5.372
REMARK  10 active torsions:
REMARK  status: ('A' for Active; 'I' for Inactive)
REMARK    1  A    between atoms: O_3  and  C_8 
REMARK    2  A    between atoms: O_4  and  C_9 
REMARK    3  A    between atoms: O_5  and  C_10 
REMARK    4  A    between atoms: O_6  and  C_14 
REMARK    5  A    between atoms: O_7  and  C_26 
REMARK    6  A    between atoms: O_7  and  C_27 
REMARK    7  A    between atoms: C_11  and  C_13 
REMARK    8  A    between atoms: C_12  and  C_14 
REMARK    9  A    between atoms: C_17  and  C_19 
REMARK   10  A    between atoms: C_19  and  C_21 
ROOT
HETATM    1 Cl   UNK     0      43.297  61.874  52.114  0.00  0.00    -0.084 Cl
HETATM    2  C   UNK     0      46.172  58.771  53.687  0.00  0.00    -0.026 A 
HETATM    3  C   UNK     0      45.487  59.589  54.585  0.00  0.00     0.019 A 
HETATM    4  C   UNK     0      45.967  58.913  52.316  0.00  0.00     0.011 A 
HETATM    5  C   UNK     0      44.596  60.551  54.111  0.00  0.00    -0.032 A 
HETATM    6  C   UNK     0      45.077  59.876  51.841  0.00  0.00     0.025 A 
HETATM    7  C   UNK     0      44.391  60.695  52.738  0.00  0.00     0.040 A 
ENDROOT
BRANCH   5   8
HETATM    8  C   UNK     0      43.881  61.409  55.104  0.00  0.00     0.078 C 
BRANCH   8   9
HETATM    9  C   UNK     0      42.542  60.853  55.540  0.00  0.00    -0.054 A 
HETATM   10  C   UNK     0      42.505  59.830  56.470  0.00  0.00     0.010 A 
HETATM   11  C   UNK     0      41.271  59.318  56.869  0.00  0.00     0.037 A 
HETATM   12  C   UNK     0      40.093  59.838  56.332  0.00  0.00     0.068 A 
HETATM   13  C   UNK     0      40.150  60.870  55.395  0.00  0.00     0.037 A 
HETATM   14  C   UNK     0      41.385  61.382  54.996  0.00  0.00     0.010 A 
BRANCH  12  15
HETATM   15  O   UNK     0      38.888  59.339  56.724  0.00  0.00    -0.352 OA
BRANCH  15  16
HETATM   16  C   UNK     0      37.722  59.980  56.211  0.00  0.00     0.171 C 
HETATM   17  C   UNK     0      37.047  59.055  55.221  0.00  0.00     0.034 C 
ENDBRANCH  15  16
ENDBRANCH  12  15
ENDBRANCH   8   9
ENDBRANCH   5   8
BRANCH   2  18
HETATM   18  C   UNK     0      47.139  57.724  54.204  0.00  0.00     0.186 C 
HETATM   19  O   UNK     0      46.526  57.080  55.326  0.00  0.00    -0.368 OA
HETATM   20  C   UNK     0      47.309  56.005  55.844  0.00  0.00     0.177 C 
HETATM   21  C   UNK     0      48.648  56.535  56.362  0.00  0.00     0.180 C 
HETATM   22  C   UNK     0      49.393  57.294  55.264  0.00  0.00     0.181 C 
HETATM   23  C   UNK     0      48.492  58.337  54.598  0.00  0.00     0.182 C 
BRANCH  20  24
HETATM   24  C   UNK     0      46.499  55.338  56.950  0.00  0.00     0.198 C 
BRANCH  24  25
HETATM   25  O   UNK     0      47.139  54.127  57.311  0.00  0.00    -0.398 OA
HETATM   26  H   UNK     0      47.636  54.290  58.130  0.00  0.00     0.209 HD
ENDBRANCH  24  25
ENDBRANCH  20  24
BRANCH  21  27
HETATM   27  O   UNK     0      49.447  55.440  56.803  0.00  0.00    -0.390 OA
HETATM   28  H   UNK     0      48.862  54.674  56.933  0.00  0.00     0.210 HD
ENDBRANCH  21  27
BRANCH  22  29
HETATM   29  O   UNK     0      50.514  57.947  55.862  0.00  0.00    -0.390 OA
HETATM   30  H   UNK     0      50.982  58.425  55.157  0.00  0.00     0.210 HD
ENDBRANCH  22  29
BRANCH  23  31
HETATM   31  O   UNK     0      49.135  58.821  53.420  0.00  0.00    -0.390 OA
HETATM   32  H   UNK     0      48.624  58.518  52.651  0.00  0.00     0.210 HD
ENDBRANCH  23  31
ENDBRANCH   2  18
TORSDOF 10
ENDMDL
MODEL 4
REMARK VINA RESULT:      -6.7     43.520     46.863
REMARK  10 active torsions:
REMARK  status: ('A' for Active; 'I' for Inactive)
REMARK    1  A    between atoms: O_3  and  C_8 
REMARK    2  A    between atoms: O_4  and  C_9 
REMARK    3  A    between atoms: O_5  and  C_10 
REMARK    4  A    between atoms: O_6  and  C_14 
REMARK    5  A    between atoms: O_7  and  C_26 
REMARK    6  A    between atoms: O_7  and  C_27 
REMARK    7  A    between atoms: C_11  and  C_13 
REMARK    8  A    between atoms: C_12  and  C_14 
REMARK    9  A    between atoms: C_17  and  C_19 
REMARK   10  A    between atoms: C_19  and  C_21 
ROOT
HETATM    1 Cl   UNK     0      23.408  26.758  25.973  0.00  0.00    -0.084 Cl
HETATM    2  C   UNK     0      25.182  30.899  26.248  0.00  0.00    -0.026 A 
HETATM    3  C   UNK     0      25.531  30.073  25.181  0.00  0.00     0.019 A 
HETATM    4  C   UNK     0      24.291  30.446  27.219  0.00  0.00     0.011 A 
HETATM    5  C   UNK     0      24.990  28.792  25.085  0.00  0.00    -0.032 A 
HETATM    6  C   UNK     0      23.749  29.165  27.125  0.00  0.00     0.025 A 
HETATM    7  C   UNK     0      24.099  28.337  26.057  0.00  0.00     0.040 A 
ENDROOT
BRANCH   5   8
HETATM    8  C   UNK     0      25.389  27.936  23.926  0.00  0.00     0.078 C 
BRANCH   8   9
HETATM    9  C   UNK     0      26.846  27.524  23.944  0.00  0.00    -0.054 A 
HETATM   10  C   UNK     0      27.671  27.913  22.904  0.00  0.00     0.010 A 
HETATM   11  C   UNK     0      29.012  27.531  22.920  0.00  0.00     0.037 A 
HETATM   12  C   UNK     0      29.507  26.767  23.977  0.00  0.00     0.068 A 
HETATM   13  C   UNK     0      28.660  26.383  25.017  0.00  0.00     0.037 A 
HETATM   14  C   UNK     0      27.318  26.765  25.000  0.00  0.00     0.010 A 
BRANCH  12  15
HETATM   15  O   UNK     0      30.817  26.396  23.993  0.00  0.00    -0.352 OA
BRANCH  15  16
HETATM   16  C   UNK     0      31.601  26.735  22.850  0.00  0.00     0.171 C 
HETATM   17  C   UNK     0      31.890  25.477  22.060  0.00  0.00     0.034 C 
ENDBRANCH  15  16
ENDBRANCH  12  15
ENDBRANCH   8   9
ENDBRANCH   5   8
BRANCH   2  18
HETATM   18  C   UNK     0      25.770  32.293  26.351  0.00  0.00     0.186 C 
HETATM   19  O   UNK     0      24.743  33.165  26.831  0.00  0.00    -0.368 OA
HETATM   20  C   UNK     0      25.208  34.496  27.057  0.00  0.00     0.177 C 
HETATM   21  C   UNK     0      25.684  35.115  25.742  0.00  0.00     0.180 C 
HETATM   22  C   UNK     0      26.761  34.248  25.092  0.00  0.00     0.181 C 
HETATM   23  C   UNK     0      26.319  32.785  25.002  0.00  0.00     0.182 C 
BRANCH  20  24
HETATM   24  C   UNK     0      24.056  35.286  27.670  0.00  0.00     0.198 C 
BRANCH  24  25
HETATM   25  O   UNK     0      23.435  36.045  26.648  0.00  0.00    -0.398 OA
HETATM   26  H   UNK     0      23.049  36.835  27.063  0.00  0.00     0.209 HD
ENDBRANCH  24  25
ENDBRANCH  20  24
BRANCH  21  27
HETATM   27  O   UNK     0      26.215  36.413  25.999  0.00  0.00    -0.390 OA
HETATM   28  H   UNK     0      27.172  36.384  25.830  0.00  0.00     0.210 HD
ENDBRANCH  21  27
BRANCH  22  29
HETATM   29  O   UNK     0      27.000  34.753  23.777  0.00  0.00    -0.390 OA
HETATM   30  H   UNK     0      26.420  34.265  23.169  0.00  0.00     0.210 HD
ENDBRANCH  22  29
BRANCH  23  31
HETATM   31  O   UNK     0      27.443  31.981  24.645  0.00  0.00    -0.390 OA
HETATM   32  H   UNK     0      27.232  31.056  24.857  0.00  0.00     0.210 HD
ENDBRANCH  23  31
ENDBRANCH   2  18
TORSDOF 10
ENDMDL
MODEL 5
REMARK VINA RESULT:      -6.7     43.140     46.119
REMARK  10 active torsions:
REMARK  status: ('A' for Active; 'I' for Inactive)
REMARK    1  A    between atoms: O_3  and  C_8 
REMARK    2  A    between atoms: O_4  and  C_9 
REMARK    3  A    between atoms: O_5  and  C_10 
REMARK    4  A    between atoms: O_6  and  C_14 
REMARK    5  A    between atoms: O_7  and  C_26 
REMARK    6  A    between atoms: O_7  and  C_27 
REMARK    7  A    between atoms: C_11  and  C_13 
REMARK    8  A    between atoms: C_12  and  C_14 
REMARK    9  A    between atoms: C_17  and  C_19 
REMARK   10  A    between atoms: C_19  and  C_21 
ROOT
HETATM    1 Cl   UNK     0      27.905  28.780  23.564  0.00  0.00    -0.084 Cl
HETATM    2  C   UNK     0      23.909  29.517  25.528  0.00  0.00    -0.026 A 
HETATM    3  C   UNK     0      24.916  30.475  25.642  0.00  0.00     0.019 A 
HETATM    4  C   UNK     0      24.138  28.343  24.812  0.00  0.00     0.011 A 
HETATM    5  C   UNK     0      26.154  30.258  25.039  0.00  0.00    -0.032 A 
HETATM    6  C   UNK     0      25.377  28.125  24.210  0.00  0.00     0.025 A 
HETATM    7  C   UNK     0      26.385  29.083  24.323  0.00  0.00     0.040 A 
ENDROOT
BRANCH   5   8
HETATM    8  C   UNK     0      27.208  31.308  25.184  0.00  0.00     0.078 C 
BRANCH   8   9
HETATM    9  C   UNK     0      26.669  32.663  25.590  0.00  0.00    -0.054 A 
HETATM   10  C   UNK     0      26.110  32.819  26.846  0.00  0.00     0.010 A 
HETATM   11  C   UNK     0      25.613  34.067  27.218  0.00  0.00     0.037 A 
HETATM   12  C   UNK     0      25.683  35.140  26.329  0.00  0.00     0.068 A 
HETATM   13  C   UNK     0      26.250  34.964  25.067  0.00  0.00     0.037 A 
HETATM   14  C   UNK     0      26.747  33.715  24.694  0.00  0.00     0.010 A 
BRANCH  12  15
HETATM   15  O   UNK     0      25.199  36.359  26.694  0.00  0.00    -0.352 OA
BRANCH  15  16
HETATM   16  C   UNK     0      24.639  36.470  28.002  0.00  0.00     0.171 C 
HETATM   17  C   UNK     0      23.202  36.933  27.884  0.00  0.00     0.034 C 
ENDBRANCH  15  16
ENDBRANCH  12  15
ENDBRANCH   8   9
ENDBRANCH   5   8
BRANCH   2  18
HETATM   18  C   UNK     0      22.561  29.754  26.183  0.00  0.00     0.186 C 
HETATM   19  O   UNK     0      22.265  31.150  26.076  0.00  0.00    -0.368 OA
HETATM   20  C   UNK     0      20.971  31.481  26.579  0.00  0.00     0.177 C 
HETATM   21  C   UNK     0      20.892  31.162  28.074  0.00  0.00     0.180 C 
HETATM   22  C   UNK     0      21.238  29.696  28.335  0.00  0.00     0.181 C 
HETATM   23  C   UNK     0      22.550  29.303  27.652  0.00  0.00     0.182 C 
BRANCH  20  24
HETATM   24  C   UNK     0      20.737  32.962  26.304  0.00  0.00     0.198 C 
BRANCH  24  25
HETATM   25  O   UNK     0      21.970  33.646  26.440  0.00  0.00    -0.398 OA
HETATM   26  H   UNK     0      22.474  33.207  27.146  0.00  0.00     0.209 HD
ENDBRANCH  24  25
ENDBRANCH  20  24
BRANCH  21  27
HETATM   27  O   UNK     0      19.572  31.426  28.541  0.00  0.00    -0.390 OA
HETATM   28  H   UNK     0      19.458  32.390  28.592  0.00  0.00     0.210 HD
ENDBRANCH  21  27
BRANCH  22  29
HETATM   29  O   UNK     0      21.366  29.518  29.747  0.00  0.00    -0.390 OA
HETATM   30  H   UNK     0      22.259  29.809  29.996  0.00  0.00     0.210 HD
ENDBRANCH  22  29
BRANCH  23  31
HETATM   31  O   UNK     0      22.688  27.883  27.695  0.00  0.00    -0.390 OA
HETATM   32  H   UNK     0      23.538  27.650  27.284  0.00  0.00     0.210 HD
ENDBRANCH  23  31
ENDBRANCH   2  18
TORSDOF 10
ENDMDL
MODEL 6
REMARK VINA RESULT:      -6.6     32.825     36.158
REMARK  10 active torsions:
REMARK  status: ('A' for Active; 'I' for Inactive)
REMARK    1  A    between atoms: O_3  and  C_8 
REMARK    2  A    between atoms: O_4  and  C_9 
REMARK    3  A    between atoms: O_5  and  C_10 
REMARK    4  A    between atoms: O_6  and  C_14 
REMARK    5  A    between atoms: O_7  and  C_26 
REMARK    6  A    between atoms: O_7  and  C_27 
REMARK    7  A    between atoms: C_11  and  C_13 
REMARK    8  A    between atoms: C_12  and  C_14 
REMARK    9  A    between atoms: C_17  and  C_19 
REMARK   10  A    between atoms: C_19  and  C_21 
ROOT
HETATM    1 Cl   UNK     0      51.722  25.693  55.203  0.00  0.00    -0.084 Cl
HETATM    2  C   UNK     0      48.594  24.706  58.303  0.00  0.00    -0.026 A 
HETATM    3  C   UNK     0      48.418  24.273  56.989  0.00  0.00     0.019 A 
HETATM    4  C   UNK     0      49.728  25.436  58.652  0.00  0.00     0.011 A 
HETATM    5  C   UNK     0      49.377  24.572  56.023  0.00  0.00    -0.032 A 
HETATM    6  C   UNK     0      50.688  25.737  57.686  0.00  0.00     0.025 A 
HETATM    7  C   UNK     0      50.513  25.304  56.371  0.00  0.00     0.040 A 
ENDROOT
BRANCH   5   8
HETATM    8  C   UNK     0      49.153  24.091  54.626  0.00  0.00     0.078 C 
BRANCH   8   9
HETATM    9  C   UNK     0      49.601  22.664  54.391  0.00  0.00    -0.054 A 
HETATM   10  C   UNK     0      50.893  22.424  53.960  0.00  0.00     0.010 A 
HETATM   11  C   UNK     0      51.304  21.109  53.743  0.00  0.00     0.037 A 
HETATM   12  C   UNK     0      50.416  20.055  53.962  0.00  0.00     0.068 A 
HETATM   13  C   UNK     0      49.117  20.317  54.396  0.00  0.00     0.037 A 
HETATM   14  C   UNK     0      48.706  21.632  54.613  0.00  0.00     0.010 A 
BRANCH  12  15
HETATM   15  O   UNK     0      50.819  18.771  53.751  0.00  0.00    -0.352 OA
BRANCH  15  16
HETATM   16  C   UNK     0      50.116  17.747  54.452  0.00  0.00     0.171 C 
HETATM   17  C   UNK     0      49.659  16.697  53.462  0.00  0.00     0.034 C 
ENDBRANCH  15  16
ENDBRANCH  12  15
ENDBRANCH   8   9
ENDBRANCH   5   8
BRANCH   2  18
HETATM   18  C   UNK     0      47.550  24.379  59.354  0.00  0.00     0.186 C 
HETATM   19  O   UNK     0      47.287  25.576  60.092  0.00  0.00    -0.368 OA
HETATM   20  C   UNK     0      46.246  25.414  61.056  0.00  0.00     0.177 C 
HETATM   21  C   UNK     0      46.656  24.375  62.100  0.00  0.00     0.180 C 
HETATM   22  C   UNK     0      47.015  23.047  61.433  0.00  0.00     0.181 C 
HETATM   23  C   UNK     0      48.010  23.250  60.288  0.00  0.00     0.182 C 
BRANCH  20  24
HETATM   24  C   UNK     0      45.988  26.779  61.686  0.00  0.00     0.198 C 
BRANCH  24  25
HETATM   25  O   UNK     0      46.664  26.835  62.930  0.00  0.00    -0.398 OA
HETATM   26  H   UNK     0      47.482  27.344  62.798  0.00  0.00     0.209 HD
ENDBRANCH  24  25
ENDBRANCH  20  24
BRANCH  21  27
HETATM   27  O   UNK     0      45.576  24.170  63.008  0.00  0.00    -0.390 OA
HETATM   28  H   UNK     0      45.931  24.219  63.912  0.00  0.00     0.210 HD
ENDBRANCH  21  27
BRANCH  22  29
HETATM   29  O   UNK     0      47.597  22.199  62.424  0.00  0.00    -0.390 OA
HETATM   30  H   UNK     0      47.188  22.424  63.276  0.00  0.00     0.210 HD
ENDBRANCH  22  29
BRANCH  23  31
HETATM   31  O   UNK     0      48.103  22.042  59.535  0.00  0.00    -0.390 OA
HETATM   32  H   UNK     0      47.647  21.341  60.030  0.00  0.00     0.210 HD
ENDBRANCH  23  31
ENDBRANCH   2  18
TORSDOF 10
ENDMDL
MODEL 7
REMARK VINA RESULT:      -6.6     33.561     36.990
REMARK  10 active torsions:
REMARK  status: ('A' for Active; 'I' for Inactive)
REMARK    1  A    between atoms: O_3  and  C_8 
REMARK    2  A    between atoms: O_4  and  C_9 
REMARK    3  A    between atoms: O_5  and  C_10 
REMARK    4  A    between atoms: O_6  and  C_14 
REMARK    5  A    between atoms: O_7  and  C_26 
REMARK    6  A    between atoms: O_7  and  C_27 
REMARK    7  A    between atoms: C_11  and  C_13 
REMARK    8  A    between atoms: C_12  and  C_14 
REMARK    9  A    between atoms: C_17  and  C_19 
REMARK   10  A    between atoms: C_19  and  C_21 
ROOT
HETATM    1 Cl   UNK     0      51.320  26.041  55.315  0.00  0.00    -0.084 Cl
HETATM    2  C   UNK     0      48.750  24.223  58.549  0.00  0.00    -0.026 A 
HETATM    3  C   UNK     0      48.559  23.836  57.223  0.00  0.00     0.019 A 
HETATM    4  C   UNK     0      49.727  25.163  58.869  0.00  0.00     0.011 A 
HETATM    5  C   UNK     0      49.347  24.391  56.215  0.00  0.00    -0.032 A 
HETATM    6  C   UNK     0      50.515  25.719  57.862  0.00  0.00     0.025 A 
HETATM    7  C   UNK     0      50.326  25.333  56.535  0.00  0.00     0.040 A 
ENDROOT
BRANCH   5   8
HETATM    8  C   UNK     0      49.113  23.951  54.806  0.00  0.00     0.078 C 
BRANCH   8   9
HETATM    9  C   UNK     0      49.621  22.556  54.509  0.00  0.00    -0.054 A 
HETATM   10  C   UNK     0      50.956  22.377  54.192  0.00  0.00     0.010 A 
HETATM   11  C   UNK     0      51.422  21.092  53.916  0.00  0.00     0.037 A 
HETATM   12  C   UNK     0      50.546  20.007  53.963  0.00  0.00     0.068 A 
HETATM   13  C   UNK     0      49.204  20.207  54.285  0.00  0.00     0.037 A 
HETATM   14  C   UNK     0      48.737  21.493  54.560  0.00  0.00     0.010 A 
BRANCH  12  15
HETATM   15  O   UNK     0      51.004  18.752  53.696  0.00  0.00    -0.352 OA
BRANCH  15  16
HETATM   16  C   UNK     0      50.076  17.678  53.843  0.00  0.00     0.171 C 
HETATM   17  C   UNK     0      50.827  16.432  54.261  0.00  0.00     0.034 C 
ENDBRANCH  15  16
ENDBRANCH  12  15
ENDBRANCH   8   9
ENDBRANCH   5   8
BRANCH   2  18
HETATM   18  C   UNK     0      47.893  23.618  59.644  0.00  0.00     0.186 C 
HETATM   19  O   UNK     0      48.377  22.295  59.894  0.00  0.00    -0.368 OA
HETATM   20  C   UNK     0      47.702  21.654  60.977  0.00  0.00     0.177 C 
HETATM   21  C   UNK     0      46.218  21.488  60.645  0.00  0.00     0.180 C 
HETATM   22  C   UNK     0      45.582  22.836  60.307  0.00  0.00     0.181 C 
HETATM   23  C   UNK     0      46.405  23.593  59.261  0.00  0.00     0.182 C 
BRANCH  20  24
HETATM   24  C   UNK     0      48.383  20.310  61.211  0.00  0.00     0.198 C 
BRANCH  24  25
HETATM   25  O   UNK     0      47.667  19.312  60.505  0.00  0.00    -0.398 OA
HETATM   26  H   UNK     0      48.226  18.518  60.472  0.00  0.00     0.209 HD
ENDBRANCH  24  25
ENDBRANCH  20  24
BRANCH  21  27
HETATM   27  O   UNK     0      45.546  20.918  61.766  0.00  0.00    -0.390 OA
HETATM   28  H   UNK     0      46.150  20.955  62.528  0.00  0.00     0.210 HD
ENDBRANCH  21  27
BRANCH  22  29
HETATM   29  O   UNK     0      44.272  22.591  59.794  0.00  0.00    -0.390 OA
HETATM   30  H   UNK     0      44.014  21.696  60.073  0.00  0.00     0.210 HD
ENDBRANCH  22  29
BRANCH  23  31
HETATM   31  O   UNK     0      45.931  24.937  59.181  0.00  0.00    -0.390 OA
HETATM   32  H   UNK     0      45.508  25.056  58.313  0.00  0.00     0.210 HD
ENDBRANCH  23  31
ENDBRANCH   2  18
TORSDOF 10
ENDMDL
MODEL 8
REMARK VINA RESULT:      -6.5     32.527     35.128
REMARK  10 active torsions:
REMARK  status: ('A' for Active; 'I' for Inactive)
REMARK    1  A    between atoms: O_3  and  C_8 
REMARK    2  A    between atoms: O_4  and  C_9 
REMARK    3  A    between atoms: O_5  and  C_10 
REMARK    4  A    between atoms: O_6  and  C_14 
REMARK    5  A    between atoms: O_7  and  C_26 
REMARK    6  A    between atoms: O_7  and  C_27 
REMARK    7  A    between atoms: C_11  and  C_13 
REMARK    8  A    between atoms: C_12  and  C_14 
REMARK    9  A    between atoms: C_17  and  C_19 
REMARK   10  A    between atoms: C_19  and  C_21 
ROOT
HETATM    1 Cl   UNK     0      26.319  38.163  60.205  0.00  0.00    -0.084 Cl
HETATM    2  C   UNK     0      24.169  34.488  61.704  0.00  0.00    -0.026 A 
HETATM    3  C   UNK     0      23.440  35.645  61.430  0.00  0.00     0.019 A 
HETATM    4  C   UNK     0      25.549  34.471  61.514  0.00  0.00     0.011 A 
HETATM    5  C   UNK     0      24.094  36.787  60.967  0.00  0.00    -0.032 A 
HETATM    6  C   UNK     0      26.204  35.612  61.051  0.00  0.00     0.025 A 
HETATM    7  C   UNK     0      25.476  36.770  60.777  0.00  0.00     0.040 A 
ENDROOT
BRANCH   5   8
HETATM    8  C   UNK     0      23.278  38.007  60.685  0.00  0.00     0.078 C 
BRANCH   8   9
HETATM    9  C   UNK     0      22.400  38.436  61.840  0.00  0.00    -0.054 A 
HETATM   10  C   UNK     0      21.032  38.241  61.758  0.00  0.00     0.010 A 
HETATM   11  C   UNK     0      20.224  38.638  62.822  0.00  0.00     0.037 A 
HETATM   12  C   UNK     0      20.795  39.222  63.953  0.00  0.00     0.068 A 
HETATM   13  C   UNK     0      22.175  39.411  64.018  0.00  0.00     0.037 A 
HETATM   14  C   UNK     0      22.985  39.014  62.953  0.00  0.00     0.010 A 
BRANCH  12  15
HETATM   15  O   UNK     0      20.004  39.608  64.992  0.00  0.00    -0.352 OA
BRANCH  15  16
HETATM   16  C   UNK     0      20.419  39.221  66.301  0.00  0.00     0.171 C 
HETATM   17  C   UNK     0      19.957  37.803  66.565  0.00  0.00     0.034 C 
ENDBRANCH  15  16
ENDBRANCH  12  15
ENDBRANCH   8   9
ENDBRANCH   5   8
BRANCH   2  18
HETATM   18  C   UNK     0      23.457  33.247  62.207  0.00  0.00     0.186 C 
HETATM   19  O   UNK     0      22.347  33.001  61.340  0.00  0.00    -0.368 OA
HETATM   20  C   UNK     0      21.650  31.797  61.661  0.00  0.00     0.177 C 
HETATM   21  C   UNK     0      21.053  31.896  63.066  0.00  0.00     0.180 C 
HETATM   22  C   UNK     0      22.138  32.208  64.096  0.00  0.00     0.181 C 
HETATM   23  C   UNK     0      22.990  33.404  63.663  0.00  0.00     0.182 C 
BRANCH  20  24
HETATM   24  C   UNK     0      20.572  31.595  60.602  0.00  0.00     0.198 C 
BRANCH  24  25
HETATM   25  O   UNK     0      20.282  30.211  60.512  0.00  0.00    -0.398 OA
HETATM   26  H   UNK     0      20.556  29.910  59.629  0.00  0.00     0.209 HD
ENDBRANCH  24  25
ENDBRANCH  20  24
BRANCH  21  27
HETATM   27  O   UNK     0      20.429  30.659  63.400  0.00  0.00    -0.390 OA
HETATM   28  H   UNK     0      20.539  30.515  64.355  0.00  0.00     0.210 HD
ENDBRANCH  21  27
BRANCH  22  29
HETATM   29  O   UNK     0      21.496  32.507  65.337  0.00  0.00    -0.390 OA
HETATM   30  H   UNK     0      21.366  33.470  65.371  0.00  0.00     0.210 HD
ENDBRANCH  22  29
BRANCH  23  31
HETATM   31  O   UNK     0      24.139  33.485  64.505  0.00  0.00    -0.390 OA
HETATM   32  H   UNK     0      24.735  34.160  64.139  0.00  0.00     0.210 HD
ENDBRANCH  23  31
ENDBRANCH   2  18
TORSDOF 10
ENDMDL
MODEL 9
REMARK VINA RESULT:      -6.5      9.436     11.967
REMARK  10 active torsions:
REMARK  status: ('A' for Active; 'I' for Inactive)
REMARK    1  A    between atoms: O_3  and  C_8 
REMARK    2  A    between atoms: O_4  and  C_9 
REMARK    3  A    between atoms: O_5  and  C_10 
REMARK    4  A    between atoms: O_6  and  C_14 
REMARK    5  A    between atoms: O_7  and  C_26 
REMARK    6  A    between atoms: O_7  and  C_27 
REMARK    7  A    between atoms: C_11  and  C_13 
REMARK    8  A    between atoms: C_12  and  C_14 
REMARK    9  A    between atoms: C_17  and  C_19 
REMARK   10  A    between atoms: C_19  and  C_21 
ROOT
HETATM    1 Cl   UNK     0      39.930  59.123  55.686  0.00  0.00    -0.084 Cl
HETATM    2  C   UNK     0      37.365  62.827  55.960  0.00  0.00    -0.026 A 
HETATM    3  C   UNK     0      38.587  62.787  56.631  0.00  0.00     0.019 A 
HETATM    4  C   UNK     0      36.944  61.730  55.211  0.00  0.00     0.011 A 
HETATM    5  C   UNK     0      39.388  61.648  56.554  0.00  0.00    -0.032 A 
HETATM    6  C   UNK     0      37.744  60.590  55.134  0.00  0.00     0.025 A 
HETATM    7  C   UNK     0      38.966  60.550  55.805  0.00  0.00     0.040 A 
ENDROOT
BRANCH   5   8
HETATM    8  C   UNK     0      40.690  61.644  57.287  0.00  0.00     0.078 C 
BRANCH   8   9
HETATM    9  C   UNK     0      41.890  61.914  56.404  0.00  0.00    -0.054 A 
HETATM   10  C   UNK     0      42.838  60.921  56.231  0.00  0.00     0.010 A 
HETATM   11  C   UNK     0      43.943  61.172  55.418  0.00  0.00     0.037 A 
HETATM   12  C   UNK     0      44.083  62.410  54.792  0.00  0.00     0.068 A 
HETATM   13  C   UNK     0      43.117  63.399  54.979  0.00  0.00     0.037 A 
HETATM   14  C   UNK     0      42.011  63.149  55.792  0.00  0.00     0.010 A 
BRANCH  12  15
HETATM   15  O   UNK     0      45.162  62.653  53.998  0.00  0.00    -0.352 OA
BRANCH  15  16
HETATM   16  C   UNK     0      45.799  63.921  54.138  0.00  0.00     0.171 C 
HETATM   17  C   UNK     0      46.873  63.818  55.200  0.00  0.00     0.034 C 
ENDBRANCH  15  16
ENDBRANCH  12  15
ENDBRANCH   8   9
ENDBRANCH   5   8
BRANCH   2  18
HETATM   18  C   UNK     0      36.496  64.066  56.044  0.00  0.00     0.186 C 
HETATM   19  O   UNK     0      35.320  63.724  56.786  0.00  0.00    -0.368 OA
HETATM   20  C   UNK     0      34.463  64.842  57.011  0.00  0.00     0.177 C 
HETATM   21  C   UNK     0      33.955  65.390  55.676  0.00  0.00     0.180 C 
HETATM   22  C   UNK     0      35.122  65.755  54.759  0.00  0.00     0.181 C 
HETATM   23  C   UNK     0      36.127  64.604  54.653  0.00  0.00     0.182 C 
BRANCH  20  24
HETATM   24  C   UNK     0      33.317  64.370  57.900  0.00  0.00     0.198 C 
BRANCH  24  25
HETATM   25  O   UNK     0      32.281  63.871  57.074  0.00  0.00    -0.398 OA
HETATM   26  H   UNK     0      31.471  64.364  57.289  0.00  0.00     0.209 HD
ENDBRANCH  24  25
ENDBRANCH  20  24
BRANCH  21  27
HETATM   27  O   UNK     0      33.164  66.552  55.915  0.00  0.00    -0.390 OA
HETATM   28  H   UNK     0      32.287  66.260  56.217  0.00  0.00     0.210 HD
ENDBRANCH  21  27
BRANCH  22  29
HETATM   29  O   UNK     0      34.593  66.043  53.464  0.00  0.00    -0.390 OA
HETATM   30  H   UNK     0      33.960  66.774  53.566  0.00  0.00     0.210 HD
ENDBRANCH  22  29
BRANCH  23  31
HETATM   31  O   UNK     0      37.313  65.081  54.018  0.00  0.00    -0.390 OA
HETATM   32  H   UNK     0      37.067  65.438  53.148  0.00  0.00     0.210 HD
ENDBRANCH  23  31
ENDBRANCH   2  18
TORSDOF 10
ENDMDL
