REMARK VINA RESULT:      -7.5     32.616     34.942
REMARK  10 active torsions:
REMARK  status: ('A' for Active; 'I' for Inactive)
REMARK    1  A    between atoms: O_3  and  C_8 
REMARK    2  A    between atoms: O_4  and  C_9 
REMARK    3  A    between atoms: O_5  and  C_10 
REMARK    4  A    between atoms: O_6  and  C_14 
REMARK    5  A    between atoms: O_7  and  C_26 
REMARK    6  A    between atoms: O_7  and  C_27 
REMARK    7  A    between atoms: C_11  and  C_13 
REMARK    8  A    between atoms: C_12  and  C_14 
REMARK    9  A    between atoms: C_17  and  C_19 
REMARK   10  A    between atoms: C_19  and  C_21 
ROOT
HETATM    1 Cl   UNK     0      36.847  56.365  32.574  0.00  0.00    -0.084 Cl
HETATM    2  C   UNK     0      34.464  59.712  30.708  0.00  0.00    -0.026 A 
HETATM    3  C   UNK     0      34.348  58.420  30.197  0.00  0.00     0.019 A 
HETATM    4  C   UNK     0      35.310  59.964  31.786  0.00  0.00     0.011 A 
HETATM    5  C   UNK     0      35.079  57.378  30.766  0.00  0.00    -0.032 A 
HETATM    6  C   UNK     0      36.042  58.922  32.355  0.00  0.00     0.025 A 
HETATM    7  C   UNK     0      35.927  57.629  31.845  0.00  0.00     0.040 A 
ENDROOT
BRANCH   5   8
HETATM    8  C   UNK     0      34.927  56.007  30.190  0.00  0.00     0.078 C 
BRANCH   8   9
HETATM    9  C   UNK     0      35.852  55.727  29.025  0.00  0.00    -0.054 A 
HETATM   10  C   UNK     0      35.527  56.215  27.772  0.00  0.00     0.010 A 
HETATM   11  C   UNK     0      36.380  55.955  26.699  0.00  0.00     0.037 A 
HETATM   12  C   UNK     0      37.544  55.211  26.897  0.00  0.00     0.068 A 
HETATM   13  C   UNK     0      37.855  54.727  28.168  0.00  0.00     0.037 A 
HETATM   14  C   UNK     0      37.002  54.987  29.241  0.00  0.00     0.010 A 
BRANCH  12  15
HETATM   15  O   UNK     0      38.376  54.960  25.849  0.00  0.00    -0.352 OA
BRANCH  15  16
HETATM   16  C   UNK     0      38.642  53.591  25.546  0.00  0.00     0.171 C 
HETATM   17  C   UNK     0      37.465  53.018  24.786  0.00  0.00     0.034 C 
ENDBRANCH  15  16
ENDBRANCH  12  15
ENDBRANCH   8   9
ENDBRANCH   5   8
BRANCH   2  18
HETATM   18  C   UNK     0      33.668  60.845  30.090  0.00  0.00     0.186 C 
HETATM   19  O   UNK     0      34.271  61.166  28.833  0.00  0.00    -0.368 OA
HETATM   20  C   UNK     0      33.549  62.163  28.110  0.00  0.00     0.177 C 
HETATM   21  C   UNK     0      33.534  63.474  28.900  0.00  0.00     0.180 C 
HETATM   22  C   UNK     0      32.950  63.260  30.296  0.00  0.00     0.181 C 
HETATM   23  C   UNK     0      33.620  62.079  31.004  0.00  0.00     0.182 C 
BRANCH  20  24
HETATM   24  C   UNK     0      34.227  62.328  26.754  0.00  0.00     0.198 C 
BRANCH  24  25
HETATM   25  O   UNK     0      33.235  62.632  25.789  0.00  0.00    -0.398 OA
HETATM   26  H   UNK     0      32.981  63.563  25.911  0.00  0.00     0.209 HD
ENDBRANCH  24  25
ENDBRANCH  20  24
BRANCH  21  27
HETATM   27  O   UNK     0      32.744  64.434  28.201  0.00  0.00    -0.390 OA
HETATM   28  H   UNK     0      33.295  64.823  27.501  0.00  0.00     0.210 HD
ENDBRANCH  21  27
BRANCH  22  29
HETATM   29  O   UNK     0      33.168  64.452  31.052  0.00  0.00    -0.390 OA
HETATM   30  H   UNK     0      33.792  64.234  31.764  0.00  0.00     0.210 HD
ENDBRANCH  22  29
BRANCH  23  31
HETATM   31  O   UNK     0      32.869  61.753  32.173  0.00  0.00    -0.390 OA
HETATM   32  H   UNK     0      31.978  61.482  31.894  0.00  0.00     0.210 HD
ENDBRANCH  23  31
ENDBRANCH   2  18
TORSDOF 10
