REMARK VINA RESULT:      -7.3      2.422      3.783
REMARK  10 active torsions:
REMARK  status: ('A' for Active; 'I' for Inactive)
REMARK    1  A    between atoms: O_3  and  C_8 
REMARK    2  A    between atoms: O_4  and  C_9 
REMARK    3  A    between atoms: O_5  and  C_10 
REMARK    4  A    between atoms: O_6  and  C_14 
REMARK    5  A    between atoms: O_7  and  C_26 
REMARK    6  A    between atoms: O_7  and  C_27 
REMARK    7  A    between atoms: C_11  and  C_13 
REMARK    8  A    between atoms: C_12  and  C_14 
REMARK    9  A    between atoms: C_17  and  C_19 
REMARK   10  A    between atoms: C_19  and  C_21 
ROOT
HETATM    1 Cl   UNK     0      45.363  52.260  58.071  0.00  0.00    -0.084 Cl
HETATM    2  C   UNK     0      48.520  54.490  60.401  0.00  0.00    -0.026 A 
HETATM    3  C   UNK     0      47.941  53.347  60.951  0.00  0.00     0.019 A 
HETATM    4  C   UNK     0      48.125  54.936  59.141  0.00  0.00     0.011 A 
HETATM    5  C   UNK     0      46.964  52.650  60.241  0.00  0.00    -0.032 A 
HETATM    6  C   UNK     0      47.149  54.240  58.430  0.00  0.00     0.025 A 
HETATM    7  C   UNK     0      46.568  53.097  58.980  0.00  0.00     0.040 A 
ENDROOT
BRANCH   5   8
HETATM    8  C   UNK     0      46.367  51.430  60.864  0.00  0.00     0.078 C 
BRANCH   8   9
HETATM    9  C   UNK     0      46.721  50.143  60.150  0.00  0.00    -0.054 A 
HETATM   10  C   UNK     0      48.049  49.768  60.052  0.00  0.00     0.010 A 
HETATM   11  C   UNK     0      48.374  48.583  59.393  0.00  0.00     0.037 A 
HETATM   12  C   UNK     0      47.365  47.791  58.843  0.00  0.00     0.068 A 
HETATM   13  C   UNK     0      46.032  48.186  58.952  0.00  0.00     0.037 A 
HETATM   14  C   UNK     0      45.707  49.372  59.611  0.00  0.00     0.010 A 
BRANCH  12  15
HETATM   15  O   UNK     0      47.683  46.633  58.201  0.00  0.00    -0.352 OA
BRANCH  15  16
HETATM   16  C   UNK     0      46.600  45.816  57.761  0.00  0.00     0.171 C 
HETATM   17  C   UNK     0      47.070  44.954  56.609  0.00  0.00     0.034 C 
ENDBRANCH  15  16
ENDBRANCH  12  15
ENDBRANCH   8   9
ENDBRANCH   5   8
BRANCH   2  18
HETATM   18  C   UNK     0      49.583  55.247  61.174  0.00  0.00     0.186 C 
HETATM   19  O   UNK     0      50.585  54.306  61.572  0.00  0.00    -0.368 OA
HETATM   20  C   UNK     0      51.691  54.921  62.232  0.00  0.00     0.177 C 
HETATM   21  C   UNK     0      51.223  55.588  63.527  0.00  0.00     0.180 C 
HETATM   22  C   UNK     0      50.107  56.594  63.247  0.00  0.00     0.181 C 
HETATM   23  C   UNK     0      48.997  55.971  62.396  0.00  0.00     0.182 C 
BRANCH  20  24
HETATM   24  C   UNK     0      52.728  53.835  62.498  0.00  0.00     0.198 C 
BRANCH  24  25
HETATM   25  O   UNK     0      53.902  54.145  61.768  0.00  0.00    -0.398 OA
HETATM   26  H   UNK     0      54.261  53.310  61.421  0.00  0.00     0.209 HD
ENDBRANCH  24  25
ENDBRANCH  20  24
BRANCH  21  27
HETATM   27  O   UNK     0      52.324  56.262  64.133  0.00  0.00    -0.390 OA
HETATM   28  H   UNK     0      51.994  56.728  64.919  0.00  0.00     0.210 HD
ENDBRANCH  21  27
BRANCH  22  29
HETATM   29  O   UNK     0      49.565  57.011  64.501  0.00  0.00    -0.390 OA
HETATM   30  H   UNK     0      49.743  57.962  64.592  0.00  0.00     0.210 HD
ENDBRANCH  22  29
BRANCH  23  31
HETATM   31  O   UNK     0      48.126  57.006  61.940  0.00  0.00    -0.390 OA
HETATM   32  H   UNK     0      48.071  56.949  60.971  0.00  0.00     0.210 HD
ENDBRANCH  23  31
ENDBRANCH   2  18
TORSDOF 10
