REMARK  Name = TZD
REMARK  13 active torsions:
REMARK  status: ('A' for Active; 'I' for Inactive)
REMARK    1  A    between atoms: C_2  and  C_3
REMARK    2  A    between atoms: C_7  and  C_9
REMARK    3  A    between atoms: C_9  and  N_10
REMARK    4  A    between atoms: C_14  and  C_17
REMARK    5  A    between atoms: C_15  and  C_16
REMARK    6  A    between atoms: C_17  and  C_18
REMARK    7  A    between atoms: C_18  and  O_19
REMARK    8  A    between atoms: O_19  and  P_20
REMARK    9  A    between atoms: P_20  and  O_21
REMARK   10  A    between atoms: P_20  and  O_23
REMARK   11  A    between atoms: O_21  and  P_24
REMARK   12  A    between atoms: P_24  and  O_25
REMARK   13  A    between atoms: P_24  and  O_27
REMARK                            x       y       z     vdW  Elec       q    Type
REMARK                         _______ _______ _______ _____ _____    ______ ____
ROOT
ATOM      1  N   UNL     1       0.728   0.707   2.737  0.00  0.00    +0.000 N 
ATOM      2  C   UNL     1       2.077   0.654   2.819  0.00  0.00    +0.000 A 
ATOM      3  O   UNL     1       2.813   1.164   3.645  0.00  0.00    +0.000 OA
ATOM      4  S   UNL     1       2.491  -0.331   1.453  0.00  0.00    +0.000 S 
ATOM      5  C   UNL     1       0.842  -0.615   0.835  0.00  0.00    +0.000 A 
ATOM      6  C   UNL     1       0.099   0.057   1.718  0.00  0.00    +0.000 A 
ATOM      7  C   UNL     1      -1.401   0.097   1.590  0.00  0.00    +0.000 C 
ENDROOT
BRANCH   1   8
ATOM      8  C   UNL     1      -0.046   1.457   3.729  0.00  0.00    +0.000 C 
BRANCH   8  15
ATOM      9  N   UNL     1      -0.360  -1.547   5.902  0.00  0.00    +0.000 NA
ATOM     10  C   UNL     1      -1.063  -1.068   6.909  0.00  0.00    +0.000 A 
ATOM     11  C   UNL     1      -1.426  -1.983   8.050  0.00  0.00    +0.000 C 
ATOM     12  N   UNL     1      -1.462   0.186   6.943  0.00  0.00    +0.000 NA
ATOM     13  C   UNL     1      -1.156   1.023   5.955  0.00  0.00    +0.000 A 
ATOM     14  N   UNL     1      -1.572   2.344   5.997  0.00  0.00    +0.000 N 
ATOM     15  C   UNL     1      -0.412   0.548   4.874  0.00  0.00    +0.000 A 
ATOM     16  C   UNL     1      -0.020  -0.776   4.879  0.00  0.00    +0.000 A 
ATOM     17  H   UNL     1      -2.089   2.666   6.752  0.00  0.00    +0.000 HD
ATOM     18  H   UNL     1      -1.348   2.946   5.271  0.00  0.00    +0.000 HD
ENDBRANCH   8  15
ENDBRANCH   1   8
BRANCH   5  19
ATOM     19  C   UNL     1       0.401  -1.407  -0.368  0.00  0.00    +0.000 C 
BRANCH  19  20
ATOM     20  C   UNL     1       0.354  -0.491  -1.592  0.00  0.00    +0.000 C 
BRANCH  20  21
ATOM     21  O   UNL     1      -0.063  -1.242  -2.734  0.00  0.00    +0.000 OA
BRANCH  21  22
ATOM     22  P   UNL     1      -0.089  -0.221  -3.979  0.00  0.00    +0.000 P 
ATOM     23  O   UNL     1      -1.040   0.876  -3.696  0.00  0.00    +0.000 OA
BRANCH  22  24
ATOM     24  O   UNL     1       1.383   0.388  -4.204  0.00  0.00    +0.000 OA
ATOM     25  H   UNL     1       1.970  -0.357  -4.385  0.00  0.00    +0.000 HD
ENDBRANCH  22  24
BRANCH  22  26
ATOM     26  O   UNL     1      -0.554  -1.005  -5.306  0.00  0.00    +0.000 OA
BRANCH  26  27
ATOM     27  P   UNL     1      -0.558   0.070  -6.504  0.00  0.00    +0.000 P 
ATOM     28  O   UNL     1       0.802   0.626  -6.672  0.00  0.00    +0.000 OA
BRANCH  27  29
ATOM     29  O   UNL     1      -1.016  -0.649  -7.870  0.00  0.00    +0.000 OA
ATOM     30  H   UNL     1      -1.005   0.027  -8.560  0.00  0.00    +0.000 HD
ENDBRANCH  27  29
BRANCH  27  31
ATOM     31  O   UNL     1      -1.585   1.259  -6.154  0.00  0.00    +0.000 OA
ATOM     32  H   UNL     1      -2.457   0.855  -6.053  0.00  0.00    +0.000 HD
ENDBRANCH  27  31
ENDBRANCH  26  27
ENDBRANCH  22  26
ENDBRANCH  21  22
ENDBRANCH  20  21
ENDBRANCH  19  20
ENDBRANCH   5  19
TORSDOF 11
