REMARK VINA RESULT:      -6.3     50.340     52.182
REMARK  10 active torsions:
REMARK  status: ('A' for Active; 'I' for Inactive)
REMARK    1  A    between atoms: O_3  and  C_8 
REMARK    2  A    between atoms: O_4  and  C_9 
REMARK    3  A    between atoms: O_5  and  C_10 
REMARK    4  A    between atoms: O_6  and  C_14 
REMARK    5  A    between atoms: O_7  and  C_26 
REMARK    6  A    between atoms: O_7  and  C_27 
REMARK    7  A    between atoms: C_11  and  C_13 
REMARK    8  A    between atoms: C_12  and  C_14 
REMARK    9  A    between atoms: C_17  and  C_19 
REMARK   10  A    between atoms: C_19  and  C_21 
ROOT
HETATM    1 Cl   UNK     0      43.778  20.630  21.821  0.00  0.00    -0.084 Cl
HETATM    2  C   UNK     0      47.779  21.357  23.778  0.00  0.00    -0.026 A 
HETATM    3  C   UNK     0      47.568  21.786  22.468  0.00  0.00     0.019 A 
HETATM    4  C   UNK     0      46.760  20.709  24.474  0.00  0.00     0.011 A 
HETATM    5  C   UNK     0      46.336  21.567  21.853  0.00  0.00    -0.032 A 
HETATM    6  C   UNK     0      45.528  20.489  23.859  0.00  0.00     0.025 A 
HETATM    7  C   UNK     0      45.316  20.918  22.549  0.00  0.00     0.040 A 
ENDROOT
BRANCH   5   8
HETATM    8  C   UNK     0      46.149  22.042  20.448  0.00  0.00     0.078 C 
BRANCH   8   9
HETATM    9  C   UNK     0      45.290  23.283  20.332  0.00  0.00    -0.054 A 
HETATM   10  C   UNK     0      45.551  24.365  21.155  0.00  0.00     0.010 A 
HETATM   11  C   UNK     0      44.759  25.507  21.048  0.00  0.00     0.037 A 
HETATM   12  C   UNK     0      43.718  25.550  20.120  0.00  0.00     0.068 A 
HETATM   13  C   UNK     0      43.470  24.450  19.299  0.00  0.00     0.037 A 
HETATM   14  C   UNK     0      44.262  23.307  19.406  0.00  0.00     0.010 A 
BRANCH  12  15
HETATM   15  O   UNK     0      42.946  26.667  20.015  0.00  0.00    -0.352 OA
BRANCH  15  16
HETATM   16  C   UNK     0      42.821  27.251  18.719  0.00  0.00     0.171 C 
HETATM   17  C   UNK     0      41.356  27.501  18.431  0.00  0.00     0.034 C 
ENDBRANCH  15  16
ENDBRANCH  12  15
ENDBRANCH   8   9
ENDBRANCH   5   8
BRANCH   2  18
HETATM   18  C   UNK     0      49.119  21.596  24.446  0.00  0.00     0.186 C 
HETATM   19  O   UNK     0      49.769  20.329  24.586  0.00  0.00    -0.368 OA
HETATM   20  C   UNK     0      51.087  20.439  25.123  0.00  0.00     0.177 C 
HETATM   21  C   UNK     0      51.031  21.024  26.535  0.00  0.00     0.180 C 
HETATM   22  C   UNK     0      50.311  22.373  26.536  0.00  0.00     0.181 C 
HETATM   23  C   UNK     0      48.965  22.286  25.811  0.00  0.00     0.182 C 
BRANCH  20  24
HETATM   24  C   UNK     0      51.704  19.044  25.113  0.00  0.00     0.198 C 
BRANCH  24  25
HETATM   25  O   UNK     0      53.085  19.160  25.402  0.00  0.00    -0.398 OA
HETATM   26  H   UNK     0      53.172  19.367  26.348  0.00  0.00     0.209 HD
ENDBRANCH  24  25
ENDBRANCH  20  24
BRANCH  21  27
HETATM   27  O   UNK     0      52.358  21.198  27.025  0.00  0.00    -0.390 OA
HETATM   28  H   UNK     0      52.656  22.089  26.773  0.00  0.00     0.210 HD
ENDBRANCH  21  27
BRANCH  22  29
HETATM   29  O   UNK     0      50.094  22.756  27.894  0.00  0.00    -0.390 OA
HETATM   30  H   UNK     0      49.154  22.988  27.984  0.00  0.00     0.210 HD
ENDBRANCH  22  29
BRANCH  23  31
HETATM   31  O   UNK     0      48.464  23.606  25.602  0.00  0.00    -0.390 OA
HETATM   32  H   UNK     0      48.111  23.655  24.698  0.00  0.00     0.210 HD
ENDBRANCH  23  31
ENDBRANCH   2  18
TORSDOF 10
