REMARK VINA RESULT:      -7.2     22.617     25.586
REMARK  10 active torsions:
REMARK  status: ('A' for Active; 'I' for Inactive)
REMARK    1  A    between atoms: O_3  and  C_8 
REMARK    2  A    between atoms: O_4  and  C_9 
REMARK    3  A    between atoms: O_5  and  C_10 
REMARK    4  A    between atoms: O_6  and  C_14 
REMARK    5  A    between atoms: O_7  and  C_26 
REMARK    6  A    between atoms: O_7  and  C_27 
REMARK    7  A    between atoms: C_11  and  C_13 
REMARK    8  A    between atoms: C_12  and  C_14 
REMARK    9  A    between atoms: C_17  and  C_19 
REMARK   10  A    between atoms: C_19  and  C_21 
ROOT
HETATM    1 Cl   UNK     0      36.822  56.345  32.615  0.00  0.00    -0.084 Cl
HETATM    2  C   UNK     0      34.454  59.687  30.720  0.00  0.00    -0.026 A 
HETATM    3  C   UNK     0      34.359  58.397  30.198  0.00  0.00     0.019 A 
HETATM    4  C   UNK     0      35.275  59.937  31.818  0.00  0.00     0.011 A 
HETATM    5  C   UNK     0      35.086  57.357  30.775  0.00  0.00    -0.032 A 
HETATM    6  C   UNK     0      36.003  58.897  32.395  0.00  0.00     0.025 A 
HETATM    7  C   UNK     0      35.908  57.607  31.874  0.00  0.00     0.040 A 
ENDROOT
BRANCH   5   8
HETATM    8  C   UNK     0      34.957  55.988  30.188  0.00  0.00     0.078 C 
BRANCH   8   9
HETATM    9  C   UNK     0      35.900  55.728  29.032  0.00  0.00    -0.054 A 
HETATM   10  C   UNK     0      37.127  55.139  29.281  0.00  0.00     0.010 A 
HETATM   11  C   UNK     0      37.995  54.901  28.216  0.00  0.00     0.037 A 
HETATM   12  C   UNK     0      37.622  55.255  26.919  0.00  0.00     0.068 A 
HETATM   13  C   UNK     0      36.381  55.848  26.688  0.00  0.00     0.037 A 
HETATM   14  C   UNK     0      35.513  56.086  27.753  0.00  0.00     0.010 A 
BRANCH  12  15
HETATM   15  O   UNK     0      38.470  55.020  25.880  0.00  0.00    -0.352 OA
BRANCH  15  16
HETATM   16  C   UNK     0      39.807  55.500  26.012  0.00  0.00     0.171 C 
HETATM   17  C   UNK     0      39.852  56.953  25.589  0.00  0.00     0.034 C 
ENDBRANCH  15  16
ENDBRANCH  12  15
ENDBRANCH   8   9
ENDBRANCH   5   8
BRANCH   2  18
HETATM   18  C   UNK     0      33.662  60.817  30.092  0.00  0.00     0.186 C 
HETATM   19  O   UNK     0      34.283  61.143  28.844  0.00  0.00    -0.368 OA
HETATM   20  C   UNK     0      33.567  62.139  28.114  0.00  0.00     0.177 C 
HETATM   21  C   UNK     0      33.536  63.448  28.905  0.00  0.00     0.180 C 
HETATM   22  C   UNK     0      32.933  63.229  30.292  0.00  0.00     0.181 C 
HETATM   23  C   UNK     0      33.597  62.050  31.008  0.00  0.00     0.182 C 
BRANCH  20  24
HETATM   24  C   UNK     0      34.264  62.308  26.768  0.00  0.00     0.198 C 
BRANCH  24  25
HETATM   25  O   UNK     0      33.286  62.614  25.789  0.00  0.00    -0.398 OA
HETATM   26  H   UNK     0      33.478  62.075  25.003  0.00  0.00     0.209 HD
ENDBRANCH  24  25
ENDBRANCH  20  24
BRANCH  21  27
HETATM   27  O   UNK     0      32.753  64.406  28.197  0.00  0.00    -0.390 OA
HETATM   28  H   UNK     0      32.982  64.343  27.254  0.00  0.00     0.210 HD
ENDBRANCH  21  27
BRANCH  22  29
HETATM   29  O   UNK     0      33.135  64.421  31.054  0.00  0.00    -0.390 OA
HETATM   30  H   UNK     0      33.266  65.149  30.424  0.00  0.00     0.210 HD
ENDBRANCH  22  29
BRANCH  23  31
HETATM   31  O   UNK     0      32.830  61.718  32.165  0.00  0.00    -0.390 OA
HETATM   32  H   UNK     0      33.393  61.194  32.760  0.00  0.00     0.210 HD
ENDBRANCH  23  31
ENDBRANCH   2  18
TORSDOF 10
