MODEL 1
REMARK VINA RESULT:      -7.2      0.000      0.000
REMARK  10 active torsions:
REMARK  status: ('A' for Active; 'I' for Inactive)
REMARK    1  A    between atoms: O_3  and  C_8 
REMARK    2  A    between atoms: O_4  and  C_9 
REMARK    3  A    between atoms: O_5  and  C_10 
REMARK    4  A    between atoms: O_6  and  C_14 
REMARK    5  A    between atoms: O_7  and  C_26 
REMARK    6  A    between atoms: O_7  and  C_27 
REMARK    7  A    between atoms: C_11  and  C_13 
REMARK    8  A    between atoms: C_12  and  C_14 
REMARK    9  A    between atoms: C_17  and  C_19 
REMARK   10  A    between atoms: C_19  and  C_21 
ROOT
HETATM    1 Cl   UNK     0      39.934  59.296  56.458  0.00  0.00    -0.084 Cl
HETATM    2  C   UNK     0      37.324  62.971  56.237  0.00  0.00    -0.026 A 
HETATM    3  C   UNK     0      37.163  61.958  55.292  0.00  0.00     0.019 A 
HETATM    4  C   UNK     0      38.283  62.845  57.240  0.00  0.00     0.011 A 
HETATM    5  C   UNK     0      37.964  60.818  55.351  0.00  0.00    -0.032 A 
HETATM    6  C   UNK     0      39.085  61.706  57.298  0.00  0.00     0.025 A 
HETATM    7  C   UNK     0      38.925  60.692  56.354  0.00  0.00     0.040 A 
ENDROOT
BRANCH   5   8
HETATM    8  C   UNK     0      37.762  59.754  54.320  0.00  0.00     0.078 C 
BRANCH   8   9
HETATM    9  C   UNK     0      38.451  60.039  53.003  0.00  0.00    -0.054 A 
HETATM   10  C   UNK     0      39.831  60.149  52.973  0.00  0.00     0.010 A 
HETATM   11  C   UNK     0      40.464  60.414  51.759  0.00  0.00     0.037 A 
HETATM   12  C   UNK     0      39.710  60.562  50.595  0.00  0.00     0.068 A 
HETATM   13  C   UNK     0      38.321  60.448  50.646  0.00  0.00     0.037 A 
HETATM   14  C   UNK     0      37.686  60.184  51.860  0.00  0.00     0.010 A 
BRANCH  12  15
HETATM   15  O   UNK     0      40.330  60.818  49.411  0.00  0.00    -0.352 OA
BRANCH  15  16
HETATM   16  C   UNK     0      41.702  60.441  49.301  0.00  0.00     0.171 C 
HETATM   17  C   UNK     0      42.553  61.691  49.233  0.00  0.00     0.034 C 
ENDBRANCH  15  16
ENDBRANCH  12  15
ENDBRANCH   8   9
ENDBRANCH   5   8
BRANCH   2  18
HETATM   18  C   UNK     0      36.452  64.210  56.173  0.00  0.00     0.186 C 
HETATM   19  O   UNK     0      35.229  63.917  56.856  0.00  0.00    -0.368 OA
HETATM   20  C   UNK     0      34.359  65.046  56.942  0.00  0.00     0.177 C 
HETATM   21  C   UNK     0      33.944  65.496  55.540  0.00  0.00     0.180 C 
HETATM   22  C   UNK     0      35.171  65.798  54.681  0.00  0.00     0.181 C 
HETATM   23  C   UNK     0      36.179  64.646  54.725  0.00  0.00     0.182 C 
BRANCH  20  24
HETATM   24  C   UNK     0      33.156  64.634  57.784  0.00  0.00     0.198 C 
BRANCH  24  25
HETATM   25  O   UNK     0      32.223  63.977  56.945  0.00  0.00    -0.398 OA
HETATM   26  H   UNK     0      32.168  64.481  56.115  0.00  0.00     0.209 HD
ENDBRANCH  24  25
ENDBRANCH  20  24
BRANCH  21  27
HETATM   27  O   UNK     0      33.140  66.668  55.642  0.00  0.00    -0.390 OA
HETATM   28  H   UNK     0      32.287  66.414  56.035  0.00  0.00     0.210 HD
ENDBRANCH  21  27
BRANCH  22  29
HETATM   29  O   UNK     0      34.731  65.992  53.336  0.00  0.00    -0.390 OA
HETATM   30  H   UNK     0      34.854  66.932  53.123  0.00  0.00     0.210 HD
ENDBRANCH  22  29
BRANCH  23  31
HETATM   31  O   UNK     0      37.406  65.081  54.140  0.00  0.00    -0.390 OA
HETATM   32  H   UNK     0      38.030  64.335  54.158  0.00  0.00     0.210 HD
ENDBRANCH  23  31
ENDBRANCH   2  18
TORSDOF 10
ENDMDL
MODEL 2
REMARK VINA RESULT:      -7.2     22.617     25.586
REMARK  10 active torsions:
REMARK  status: ('A' for Active; 'I' for Inactive)
REMARK    1  A    between atoms: O_3  and  C_8 
REMARK    2  A    between atoms: O_4  and  C_9 
REMARK    3  A    between atoms: O_5  and  C_10 
REMARK    4  A    between atoms: O_6  and  C_14 
REMARK    5  A    between atoms: O_7  and  C_26 
REMARK    6  A    between atoms: O_7  and  C_27 
REMARK    7  A    between atoms: C_11  and  C_13 
REMARK    8  A    between atoms: C_12  and  C_14 
REMARK    9  A    between atoms: C_17  and  C_19 
REMARK   10  A    between atoms: C_19  and  C_21 
ROOT
HETATM    1 Cl   UNK     0      36.822  56.345  32.615  0.00  0.00    -0.084 Cl
HETATM    2  C   UNK     0      34.454  59.687  30.720  0.00  0.00    -0.026 A 
HETATM    3  C   UNK     0      34.359  58.397  30.198  0.00  0.00     0.019 A 
HETATM    4  C   UNK     0      35.275  59.937  31.818  0.00  0.00     0.011 A 
HETATM    5  C   UNK     0      35.086  57.357  30.775  0.00  0.00    -0.032 A 
HETATM    6  C   UNK     0      36.003  58.897  32.395  0.00  0.00     0.025 A 
HETATM    7  C   UNK     0      35.908  57.607  31.874  0.00  0.00     0.040 A 
ENDROOT
BRANCH   5   8
HETATM    8  C   UNK     0      34.957  55.988  30.188  0.00  0.00     0.078 C 
BRANCH   8   9
HETATM    9  C   UNK     0      35.900  55.728  29.032  0.00  0.00    -0.054 A 
HETATM   10  C   UNK     0      37.127  55.139  29.281  0.00  0.00     0.010 A 
HETATM   11  C   UNK     0      37.995  54.901  28.216  0.00  0.00     0.037 A 
HETATM   12  C   UNK     0      37.622  55.255  26.919  0.00  0.00     0.068 A 
HETATM   13  C   UNK     0      36.381  55.848  26.688  0.00  0.00     0.037 A 
HETATM   14  C   UNK     0      35.513  56.086  27.753  0.00  0.00     0.010 A 
BRANCH  12  15
HETATM   15  O   UNK     0      38.470  55.020  25.880  0.00  0.00    -0.352 OA
BRANCH  15  16
HETATM   16  C   UNK     0      39.807  55.500  26.012  0.00  0.00     0.171 C 
HETATM   17  C   UNK     0      39.852  56.953  25.589  0.00  0.00     0.034 C 
ENDBRANCH  15  16
ENDBRANCH  12  15
ENDBRANCH   8   9
ENDBRANCH   5   8
BRANCH   2  18
HETATM   18  C   UNK     0      33.662  60.817  30.092  0.00  0.00     0.186 C 
HETATM   19  O   UNK     0      34.283  61.143  28.844  0.00  0.00    -0.368 OA
HETATM   20  C   UNK     0      33.567  62.139  28.114  0.00  0.00     0.177 C 
HETATM   21  C   UNK     0      33.536  63.448  28.905  0.00  0.00     0.180 C 
HETATM   22  C   UNK     0      32.933  63.229  30.292  0.00  0.00     0.181 C 
HETATM   23  C   UNK     0      33.597  62.050  31.008  0.00  0.00     0.182 C 
BRANCH  20  24
HETATM   24  C   UNK     0      34.264  62.308  26.768  0.00  0.00     0.198 C 
BRANCH  24  25
HETATM   25  O   UNK     0      33.286  62.614  25.789  0.00  0.00    -0.398 OA
HETATM   26  H   UNK     0      33.478  62.075  25.003  0.00  0.00     0.209 HD
ENDBRANCH  24  25
ENDBRANCH  20  24
BRANCH  21  27
HETATM   27  O   UNK     0      32.753  64.406  28.197  0.00  0.00    -0.390 OA
HETATM   28  H   UNK     0      32.982  64.343  27.254  0.00  0.00     0.210 HD
ENDBRANCH  21  27
BRANCH  22  29
HETATM   29  O   UNK     0      33.135  64.421  31.054  0.00  0.00    -0.390 OA
HETATM   30  H   UNK     0      33.266  65.149  30.424  0.00  0.00     0.210 HD
ENDBRANCH  22  29
BRANCH  23  31
HETATM   31  O   UNK     0      32.830  61.718  32.165  0.00  0.00    -0.390 OA
HETATM   32  H   UNK     0      33.393  61.194  32.760  0.00  0.00     0.210 HD
ENDBRANCH  23  31
ENDBRANCH   2  18
TORSDOF 10
ENDMDL
MODEL 3
REMARK VINA RESULT:      -7.2      8.948     11.793
REMARK  10 active torsions:
REMARK  status: ('A' for Active; 'I' for Inactive)
REMARK    1  A    between atoms: O_3  and  C_8 
REMARK    2  A    between atoms: O_4  and  C_9 
REMARK    3  A    between atoms: O_5  and  C_10 
REMARK    4  A    between atoms: O_6  and  C_14 
REMARK    5  A    between atoms: O_7  and  C_26 
REMARK    6  A    between atoms: O_7  and  C_27 
REMARK    7  A    between atoms: C_11  and  C_13 
REMARK    8  A    between atoms: C_12  and  C_14 
REMARK    9  A    between atoms: C_17  and  C_19 
REMARK   10  A    between atoms: C_19  and  C_21 
ROOT
HETATM    1 Cl   UNK     0      48.698  58.199  49.635  0.00  0.00    -0.084 Cl
HETATM    2  C   UNK     0      47.604  60.614  53.288  0.00  0.00    -0.026 A 
HETATM    3  C   UNK     0      47.234  59.272  53.217  0.00  0.00     0.019 A 
HETATM    4  C   UNK     0      48.307  61.201  52.237  0.00  0.00     0.011 A 
HETATM    5  C   UNK     0      47.566  58.516  52.093  0.00  0.00    -0.032 A 
HETATM    6  C   UNK     0      48.639  60.446  51.113  0.00  0.00     0.025 A 
HETATM    7  C   UNK     0      48.269  59.103  51.041  0.00  0.00     0.040 A 
ENDROOT
BRANCH   5   8
HETATM    8  C   UNK     0      47.151  57.081  52.055  0.00  0.00     0.078 C 
BRANCH   8   9
HETATM    9  C   UNK     0      47.493  56.311  53.313  0.00  0.00    -0.054 A 
HETATM   10  C   UNK     0      46.666  56.418  54.417  0.00  0.00     0.010 A 
HETATM   11  C   UNK     0      46.984  55.710  55.575  0.00  0.00     0.037 A 
HETATM   12  C   UNK     0      48.123  54.906  55.612  0.00  0.00     0.068 A 
HETATM   13  C   UNK     0      48.945  54.811  54.489  0.00  0.00     0.037 A 
HETATM   14  C   UNK     0      48.628  55.519  53.330  0.00  0.00     0.010 A 
BRANCH  12  15
HETATM   15  O   UNK     0      48.431  54.214  56.743  0.00  0.00    -0.352 OA
BRANCH  15  16
HETATM   16  C   UNK     0      48.062  54.807  57.987  0.00  0.00     0.171 C 
HETATM   17  C   UNK     0      49.298  55.391  58.639  0.00  0.00     0.034 C 
ENDBRANCH  15  16
ENDBRANCH  12  15
ENDBRANCH   8   9
ENDBRANCH   5   8
BRANCH   2  18
HETATM   18  C   UNK     0      47.243  61.436  54.510  0.00  0.00     0.186 C 
HETATM   19  O   UNK     0      46.470  62.556  54.069  0.00  0.00    -0.368 OA
HETATM   20  C   UNK     0      45.992  63.358  55.149  0.00  0.00     0.177 C 
HETATM   21  C   UNK     0      47.170  63.956  55.920  0.00  0.00     0.180 C 
HETATM   22  C   UNK     0      48.111  62.857  56.412  0.00  0.00     0.181 C 
HETATM   23  C   UNK     0      48.491  61.900  55.278  0.00  0.00     0.182 C 
BRANCH  20  24
HETATM   24  C   UNK     0      45.097  64.440  54.555  0.00  0.00     0.198 C 
BRANCH  24  25
HETATM   25  O   UNK     0      44.142  64.821  55.530  0.00  0.00    -0.398 OA
HETATM   26  H   UNK     0      44.026  64.070  56.136  0.00  0.00     0.209 HD
ENDBRANCH  24  25
ENDBRANCH  20  24
BRANCH  21  27
HETATM   27  O   UNK     0      46.676  64.689  57.039  0.00  0.00    -0.390 OA
HETATM   28  H   UNK     0      45.780  64.367  57.236  0.00  0.00     0.210 HD
ENDBRANCH  21  27
BRANCH  22  29
HETATM   29  O   UNK     0      49.291  63.481  56.921  0.00  0.00    -0.390 OA
HETATM   30  H   UNK     0      49.996  62.813  56.919  0.00  0.00     0.210 HD
ENDBRANCH  22  29
BRANCH  23  31
HETATM   31  O   UNK     0      49.138  60.756  55.834  0.00  0.00    -0.390 OA
HETATM   32  H   UNK     0      49.846  60.485  55.225  0.00  0.00     0.210 HD
ENDBRANCH  23  31
ENDBRANCH   2  18
TORSDOF 10
ENDMDL
MODEL 4
REMARK VINA RESULT:      -6.8     39.509     42.031
REMARK  10 active torsions:
REMARK  status: ('A' for Active; 'I' for Inactive)
REMARK    1  A    between atoms: O_3  and  C_8 
REMARK    2  A    between atoms: O_4  and  C_9 
REMARK    3  A    between atoms: O_5  and  C_10 
REMARK    4  A    between atoms: O_6  and  C_14 
REMARK    5  A    between atoms: O_7  and  C_26 
REMARK    6  A    between atoms: O_7  and  C_27 
REMARK    7  A    between atoms: C_11  and  C_13 
REMARK    8  A    between atoms: C_12  and  C_14 
REMARK    9  A    between atoms: C_17  and  C_19 
REMARK   10  A    between atoms: C_19  and  C_21 
ROOT
HETATM    1 Cl   UNK     0      51.408  26.131  55.374  0.00  0.00    -0.084 Cl
HETATM    2  C   UNK     0      48.794  24.319  58.576  0.00  0.00    -0.026 A 
HETATM    3  C   UNK     0      48.605  23.948  57.245  0.00  0.00     0.019 A 
HETATM    4  C   UNK     0      49.784  25.241  58.911  0.00  0.00     0.011 A 
HETATM    5  C   UNK     0      49.407  24.502  56.248  0.00  0.00    -0.032 A 
HETATM    6  C   UNK     0      50.585  25.796  57.913  0.00  0.00     0.025 A 
HETATM    7  C   UNK     0      50.397  25.426  56.582  0.00  0.00     0.040 A 
ENDROOT
BRANCH   5   8
HETATM    8  C   UNK     0      49.173  24.079  54.833  0.00  0.00     0.078 C 
BRANCH   8   9
HETATM    9  C   UNK     0      49.640  22.671  54.531  0.00  0.00    -0.054 A 
HETATM   10  C   UNK     0      50.965  22.456  54.195  0.00  0.00     0.010 A 
HETATM   11  C   UNK     0      51.394  21.159  53.915  0.00  0.00     0.037 A 
HETATM   12  C   UNK     0      50.491  20.097  53.976  0.00  0.00     0.068 A 
HETATM   13  C   UNK     0      49.159  20.333  54.316  0.00  0.00     0.037 A 
HETATM   14  C   UNK     0      48.730  21.631  54.596  0.00  0.00     0.010 A 
BRANCH  12  15
HETATM   15  O   UNK     0      50.911  18.831  53.704  0.00  0.00    -0.352 OA
BRANCH  15  16
HETATM   16  C   UNK     0      50.336  17.777  54.475  0.00  0.00     0.171 C 
HETATM   17  C   UNK     0      49.718  16.762  53.537  0.00  0.00     0.034 C 
ENDBRANCH  15  16
ENDBRANCH  12  15
ENDBRANCH   8   9
ENDBRANCH   5   8
BRANCH   2  18
HETATM   18  C   UNK     0      47.923  23.716  59.661  0.00  0.00     0.186 C 
HETATM   19  O   UNK     0      48.425  22.406  59.945  0.00  0.00    -0.368 OA
HETATM   20  C   UNK     0      47.737  21.771  61.022  0.00  0.00     0.177 C 
HETATM   21  C   UNK     0      46.264  21.571  60.658  0.00  0.00     0.180 C 
HETATM   22  C   UNK     0      45.612  22.901  60.282  0.00  0.00     0.181 C 
HETATM   23  C   UNK     0      46.445  23.656  59.243  0.00  0.00     0.182 C 
BRANCH  20  24
HETATM   24  C   UNK     0      48.437  20.444  61.295  0.00  0.00     0.198 C 
BRANCH  24  25
HETATM   25  O   UNK     0      48.217  20.088  62.648  0.00  0.00    -0.398 OA
HETATM   26  H   UNK     0      48.112  19.122  62.684  0.00  0.00     0.209 HD
ENDBRANCH  24  25
ENDBRANCH  20  24
BRANCH  21  27
HETATM   27  O   UNK     0      45.577  21.007  61.772  0.00  0.00    -0.390 OA
HETATM   28  H   UNK     0      46.132  20.298  62.140  0.00  0.00     0.210 HD
ENDBRANCH  21  27
BRANCH  22  29
HETATM   29  O   UNK     0      44.319  22.622  59.743  0.00  0.00    -0.390 OA
HETATM   30  H   UNK     0      43.812  23.451  59.762  0.00  0.00     0.210 HD
ENDBRANCH  22  29
BRANCH  23  31
HETATM   31  O   UNK     0      45.948  24.989  59.129  0.00  0.00    -0.390 OA
HETATM   32  H   UNK     0      44.977  24.952  59.151  0.00  0.00     0.210 HD
ENDBRANCH  23  31
ENDBRANCH   2  18
TORSDOF 10
ENDMDL
MODEL 5
REMARK VINA RESULT:      -6.7     38.862     41.321
REMARK  10 active torsions:
REMARK  status: ('A' for Active; 'I' for Inactive)
REMARK    1  A    between atoms: O_3  and  C_8 
REMARK    2  A    between atoms: O_4  and  C_9 
REMARK    3  A    between atoms: O_5  and  C_10 
REMARK    4  A    between atoms: O_6  and  C_14 
REMARK    5  A    between atoms: O_7  and  C_26 
REMARK    6  A    between atoms: O_7  and  C_27 
REMARK    7  A    between atoms: C_11  and  C_13 
REMARK    8  A    between atoms: C_12  and  C_14 
REMARK    9  A    between atoms: C_17  and  C_19 
REMARK   10  A    between atoms: C_19  and  C_21 
ROOT
HETATM    1 Cl   UNK     0      51.700  25.673  55.169  0.00  0.00    -0.084 Cl
HETATM    2  C   UNK     0      48.585  24.672  58.278  0.00  0.00    -0.026 A 
HETATM    3  C   UNK     0      48.413  24.228  56.968  0.00  0.00     0.019 A 
HETATM    4  C   UNK     0      49.711  25.419  58.621  0.00  0.00     0.011 A 
HETATM    5  C   UNK     0      49.369  24.531  55.999  0.00  0.00    -0.032 A 
HETATM    6  C   UNK     0      50.666  25.723  57.652  0.00  0.00     0.025 A 
HETATM    7  C   UNK     0      50.496  25.279  56.341  0.00  0.00     0.040 A 
ENDROOT
BRANCH   5   8
HETATM    8  C   UNK     0      49.150  24.036  54.605  0.00  0.00     0.078 C 
BRANCH   8   9
HETATM    9  C   UNK     0      49.606  22.610  54.383  0.00  0.00    -0.054 A 
HETATM   10  C   UNK     0      48.715  21.574  54.599  0.00  0.00     0.010 A 
HETATM   11  C   UNK     0      49.137  20.261  54.396  0.00  0.00     0.037 A 
HETATM   12  C   UNK     0      50.444  20.004  53.980  0.00  0.00     0.068 A 
HETATM   13  C   UNK     0      51.329  21.062  53.768  0.00  0.00     0.037 A 
HETATM   14  C   UNK     0      50.906  22.376  53.972  0.00  0.00     0.010 A 
BRANCH  12  15
HETATM   15  O   UNK     0      50.854  18.721  53.780  0.00  0.00    -0.352 OA
BRANCH  15  16
HETATM   16  C   UNK     0      49.861  17.701  53.868  0.00  0.00     0.171 C 
HETATM   17  C   UNK     0      50.545  16.364  54.064  0.00  0.00     0.034 C 
ENDBRANCH  15  16
ENDBRANCH  12  15
ENDBRANCH   8   9
ENDBRANCH   5   8
BRANCH   2  18
HETATM   18  C   UNK     0      47.545  24.341  59.331  0.00  0.00     0.186 C 
HETATM   19  O   UNK     0      47.289  25.534  60.079  0.00  0.00    -0.368 OA
HETATM   20  C   UNK     0      46.253  25.368  61.047  0.00  0.00     0.177 C 
HETATM   21  C   UNK     0      46.665  24.320  62.083  0.00  0.00     0.180 C 
HETATM   22  C   UNK     0      47.017  22.996  61.405  0.00  0.00     0.181 C 
HETATM   23  C   UNK     0      48.008  23.204  60.257  0.00  0.00     0.182 C 
BRANCH  20  24
HETATM   24  C   UNK     0      46.002  26.729  61.688  0.00  0.00     0.198 C 
BRANCH  24  25
HETATM   25  O   UNK     0      46.734  26.799  62.899  0.00  0.00    -0.398 OA
HETATM   26  H   UNK     0      46.930  27.736  63.070  0.00  0.00     0.209 HD
ENDBRANCH  24  25
ENDBRANCH  20  24
BRANCH  21  27
HETATM   27  O   UNK     0      45.590  24.112  62.995  0.00  0.00    -0.390 OA
HETATM   28  H   UNK     0      45.964  23.786  63.831  0.00  0.00     0.210 HD
ENDBRANCH  21  27
BRANCH  22  29
HETATM   29  O   UNK     0      47.602  22.140  62.387  0.00  0.00    -0.390 OA
HETATM   30  H   UNK     0      48.469  21.859  62.048  0.00  0.00     0.210 HD
ENDBRANCH  22  29
BRANCH  23  31
HETATM   31  O   UNK     0      48.094  22.001  59.494  0.00  0.00    -0.390 OA
HETATM   32  H   UNK     0      48.932  22.015  59.002  0.00  0.00     0.210 HD
ENDBRANCH  23  31
ENDBRANCH   2  18
TORSDOF 10
ENDMDL
MODEL 6
REMARK VINA RESULT:      -6.6      5.257     10.053
REMARK  10 active torsions:
REMARK  status: ('A' for Active; 'I' for Inactive)
REMARK    1  A    between atoms: O_3  and  C_8 
REMARK    2  A    between atoms: O_4  and  C_9 
REMARK    3  A    between atoms: O_5  and  C_10 
REMARK    4  A    between atoms: O_6  and  C_14 
REMARK    5  A    between atoms: O_7  and  C_26 
REMARK    6  A    between atoms: O_7  and  C_27 
REMARK    7  A    between atoms: C_11  and  C_13 
REMARK    8  A    between atoms: C_12  and  C_14 
REMARK    9  A    between atoms: C_17  and  C_19 
REMARK   10  A    between atoms: C_19  and  C_21 
ROOT
HETATM    1 Cl   UNK     0      40.545  62.909  54.079  0.00  0.00    -0.084 Cl
HETATM    2  C   UNK     0      43.855  60.789  51.862  0.00  0.00    -0.026 A 
HETATM    3  C   UNK     0      42.624  60.980  51.236  0.00  0.00     0.019 A 
HETATM    4  C   UNK     0      44.058  61.251  53.161  0.00  0.00     0.011 A 
HETATM    5  C   UNK     0      41.594  61.633  51.912  0.00  0.00    -0.032 A 
HETATM    6  C   UNK     0      43.029  61.904  53.837  0.00  0.00     0.025 A 
HETATM    7  C   UNK     0      41.796  62.096  53.212  0.00  0.00     0.040 A 
ENDROOT
BRANCH   5   8
HETATM    8  C   UNK     0      40.288  61.819  51.208  0.00  0.00     0.078 C 
BRANCH   8   9
HETATM    9  C   UNK     0      39.207  60.861  51.661  0.00  0.00    -0.054 A 
HETATM   10  C   UNK     0      39.569  59.683  52.290  0.00  0.00     0.010 A 
HETATM   11  C   UNK     0      38.572  58.801  52.706  0.00  0.00     0.037 A 
HETATM   12  C   UNK     0      37.230  59.111  52.488  0.00  0.00     0.068 A 
HETATM   13  C   UNK     0      36.884  60.303  51.852  0.00  0.00     0.037 A 
HETATM   14  C   UNK     0      37.881  61.186  51.435  0.00  0.00     0.010 A 
BRANCH  12  15
HETATM   15  O   UNK     0      36.258  58.250  52.896  0.00  0.00    -0.352 OA
BRANCH  15  16
HETATM   16  C   UNK     0      36.236  57.904  54.280  0.00  0.00     0.171 C 
HETATM   17  C   UNK     0      35.551  56.564  54.443  0.00  0.00     0.034 C 
ENDBRANCH  15  16
ENDBRANCH  12  15
ENDBRANCH   8   9
ENDBRANCH   5   8
BRANCH   2  18
HETATM   18  C   UNK     0      44.976  60.079  51.126  0.00  0.00     0.186 C 
HETATM   19  O   UNK     0      45.585  59.163  52.042  0.00  0.00    -0.368 OA
HETATM   20  C   UNK     0      46.600  58.365  51.433  0.00  0.00     0.177 C 
HETATM   21  C   UNK     0      47.738  59.257  50.933  0.00  0.00     0.180 C 
HETATM   22  C   UNK     0      47.211  60.323  49.973  0.00  0.00     0.181 C 
HETATM   23  C   UNK     0      46.013  61.066  50.569  0.00  0.00     0.182 C 
BRANCH  20  24
HETATM   24  C   UNK     0      47.083  57.363  52.476  0.00  0.00     0.198 C 
BRANCH  24  25
HETATM   25  O   UNK     0      47.895  56.397  51.831  0.00  0.00    -0.398 OA
HETATM   26  H   UNK     0      47.687  55.531  52.222  0.00  0.00     0.209 HD
ENDBRANCH  24  25
ENDBRANCH  20  24
BRANCH  21  27
HETATM   27  O   UNK     0      48.705  58.453  50.261  0.00  0.00    -0.390 OA
HETATM   28  H   UNK     0      49.561  58.582  50.702  0.00  0.00     0.210 HD
ENDBRANCH  21  27
BRANCH  22  29
HETATM   29  O   UNK     0      48.267  61.251  49.721  0.00  0.00    -0.390 OA
HETATM   30  H   UNK     0      47.878  62.142  49.723  0.00  0.00     0.210 HD
ENDBRANCH  22  29
BRANCH  23  31
HETATM   31  O   UNK     0      45.396  61.848  49.547  0.00  0.00    -0.390 OA
HETATM   32  H   UNK     0      45.692  61.507  48.686  0.00  0.00     0.210 HD
ENDBRANCH  23  31
ENDBRANCH   2  18
TORSDOF 10
ENDMDL
MODEL 7
REMARK VINA RESULT:      -6.4     36.027     38.539
REMARK  10 active torsions:
REMARK  status: ('A' for Active; 'I' for Inactive)
REMARK    1  A    between atoms: O_3  and  C_8 
REMARK    2  A    between atoms: O_4  and  C_9 
REMARK    3  A    between atoms: O_5  and  C_10 
REMARK    4  A    between atoms: O_6  and  C_14 
REMARK    5  A    between atoms: O_7  and  C_26 
REMARK    6  A    between atoms: O_7  and  C_27 
REMARK    7  A    between atoms: C_11  and  C_13 
REMARK    8  A    between atoms: C_12  and  C_14 
REMARK    9  A    between atoms: C_17  and  C_19 
REMARK   10  A    between atoms: C_19  and  C_21 
ROOT
HETATM    1 Cl   UNK     0      19.602  31.047  34.346  0.00  0.00    -0.084 Cl
HETATM    2  C   UNK     0      19.267  30.670  38.831  0.00  0.00    -0.026 A 
HETATM    3  C   UNK     0      19.694  31.875  38.274  0.00  0.00     0.019 A 
HETATM    4  C   UNK     0      18.946  29.594  38.006  0.00  0.00     0.011 A 
HETATM    5  C   UNK     0      19.802  32.003  36.890  0.00  0.00    -0.032 A 
HETATM    6  C   UNK     0      19.054  29.721  36.621  0.00  0.00     0.025 A 
HETATM    7  C   UNK     0      19.482  30.926  36.063  0.00  0.00     0.040 A 
ENDROOT
BRANCH   5   8
HETATM    8  C   UNK     0      20.263  33.311  36.331  0.00  0.00     0.078 C 
BRANCH   8   9
HETATM    9  C   UNK     0      20.800  34.267  37.375  0.00  0.00    -0.054 A 
HETATM   10  C   UNK     0      22.165  34.339  37.586  0.00  0.00     0.010 A 
HETATM   11  C   UNK     0      22.658  35.219  38.549  0.00  0.00     0.037 A 
HETATM   12  C   UNK     0      21.778  36.013  39.285  0.00  0.00     0.068 A 
HETATM   13  C   UNK     0      20.405  35.926  39.058  0.00  0.00     0.037 A 
HETATM   14  C   UNK     0      19.911  35.045  38.095  0.00  0.00     0.010 A 
BRANCH  12  15
HETATM   15  O   UNK     0      22.261  36.873  40.224  0.00  0.00    -0.352 OA
BRANCH  15  16
HETATM   16  C   UNK     0      21.821  38.228  40.150  0.00  0.00     0.171 C 
HETATM   17  C   UNK     0      22.540  38.917  39.009  0.00  0.00     0.034 C 
ENDBRANCH  15  16
ENDBRANCH  12  15
ENDBRANCH   8   9
ENDBRANCH   5   8
BRANCH   2  18
HETATM   18  C   UNK     0      19.149  30.532  40.336  0.00  0.00     0.186 C 
HETATM   19  O   UNK     0      20.259  29.751  40.790  0.00  0.00    -0.368 OA
HETATM   20  C   UNK     0      20.307  29.630  42.212  0.00  0.00     0.177 C 
HETATM   21  C   UNK     0      19.062  28.898  42.717  0.00  0.00     0.180 C 
HETATM   22  C   UNK     0      17.789  29.609  42.257  0.00  0.00     0.181 C 
HETATM   23  C   UNK     0      17.819  29.884  40.751  0.00  0.00     0.182 C 
BRANCH  20  24
HETATM   24  C   UNK     0      21.586  28.880  42.565  0.00  0.00     0.198 C 
BRANCH  24  25
HETATM   25  O   UNK     0      22.219  29.550  43.641  0.00  0.00    -0.398 OA
HETATM   26  H   UNK     0      21.728  29.333  44.452  0.00  0.00     0.209 HD
ENDBRANCH  24  25
ENDBRANCH  20  24
BRANCH  21  27
HETATM   27  O   UNK     0      19.089  28.855  44.142  0.00  0.00    -0.390 OA
HETATM   28  H   UNK     0      20.005  29.004  44.429  0.00  0.00     0.210 HD
ENDBRANCH  21  27
BRANCH  22  29
HETATM   29  O   UNK     0      16.678  28.767  42.564  0.00  0.00    -0.390 OA
HETATM   30  H   UNK     0      16.039  28.852  41.836  0.00  0.00     0.210 HD
ENDBRANCH  22  29
BRANCH  23  31
HETATM   31  O   UNK     0      16.754  30.775  40.421  0.00  0.00    -0.390 OA
HETATM   32  H   UNK     0      16.000  30.572  41.000  0.00  0.00     0.210 HD
ENDBRANCH  23  31
ENDBRANCH   2  18
TORSDOF 10
ENDMDL
MODEL 8
REMARK VINA RESULT:      -6.3     50.340     52.182
REMARK  10 active torsions:
REMARK  status: ('A' for Active; 'I' for Inactive)
REMARK    1  A    between atoms: O_3  and  C_8 
REMARK    2  A    between atoms: O_4  and  C_9 
REMARK    3  A    between atoms: O_5  and  C_10 
REMARK    4  A    between atoms: O_6  and  C_14 
REMARK    5  A    between atoms: O_7  and  C_26 
REMARK    6  A    between atoms: O_7  and  C_27 
REMARK    7  A    between atoms: C_11  and  C_13 
REMARK    8  A    between atoms: C_12  and  C_14 
REMARK    9  A    between atoms: C_17  and  C_19 
REMARK   10  A    between atoms: C_19  and  C_21 
ROOT
HETATM    1 Cl   UNK     0      43.778  20.630  21.821  0.00  0.00    -0.084 Cl
HETATM    2  C   UNK     0      47.779  21.357  23.778  0.00  0.00    -0.026 A 
HETATM    3  C   UNK     0      47.568  21.786  22.468  0.00  0.00     0.019 A 
HETATM    4  C   UNK     0      46.760  20.709  24.474  0.00  0.00     0.011 A 
HETATM    5  C   UNK     0      46.336  21.567  21.853  0.00  0.00    -0.032 A 
HETATM    6  C   UNK     0      45.528  20.489  23.859  0.00  0.00     0.025 A 
HETATM    7  C   UNK     0      45.316  20.918  22.549  0.00  0.00     0.040 A 
ENDROOT
BRANCH   5   8
HETATM    8  C   UNK     0      46.149  22.042  20.448  0.00  0.00     0.078 C 
BRANCH   8   9
HETATM    9  C   UNK     0      45.290  23.283  20.332  0.00  0.00    -0.054 A 
HETATM   10  C   UNK     0      45.551  24.365  21.155  0.00  0.00     0.010 A 
HETATM   11  C   UNK     0      44.759  25.507  21.048  0.00  0.00     0.037 A 
HETATM   12  C   UNK     0      43.718  25.550  20.120  0.00  0.00     0.068 A 
HETATM   13  C   UNK     0      43.470  24.450  19.299  0.00  0.00     0.037 A 
HETATM   14  C   UNK     0      44.262  23.307  19.406  0.00  0.00     0.010 A 
BRANCH  12  15
HETATM   15  O   UNK     0      42.946  26.667  20.015  0.00  0.00    -0.352 OA
BRANCH  15  16
HETATM   16  C   UNK     0      42.821  27.251  18.719  0.00  0.00     0.171 C 
HETATM   17  C   UNK     0      41.356  27.501  18.431  0.00  0.00     0.034 C 
ENDBRANCH  15  16
ENDBRANCH  12  15
ENDBRANCH   8   9
ENDBRANCH   5   8
BRANCH   2  18
HETATM   18  C   UNK     0      49.119  21.596  24.446  0.00  0.00     0.186 C 
HETATM   19  O   UNK     0      49.769  20.329  24.586  0.00  0.00    -0.368 OA
HETATM   20  C   UNK     0      51.087  20.439  25.123  0.00  0.00     0.177 C 
HETATM   21  C   UNK     0      51.031  21.024  26.535  0.00  0.00     0.180 C 
HETATM   22  C   UNK     0      50.311  22.373  26.536  0.00  0.00     0.181 C 
HETATM   23  C   UNK     0      48.965  22.286  25.811  0.00  0.00     0.182 C 
BRANCH  20  24
HETATM   24  C   UNK     0      51.704  19.044  25.113  0.00  0.00     0.198 C 
BRANCH  24  25
HETATM   25  O   UNK     0      53.085  19.160  25.402  0.00  0.00    -0.398 OA
HETATM   26  H   UNK     0      53.172  19.367  26.348  0.00  0.00     0.209 HD
ENDBRANCH  24  25
ENDBRANCH  20  24
BRANCH  21  27
HETATM   27  O   UNK     0      52.358  21.198  27.025  0.00  0.00    -0.390 OA
HETATM   28  H   UNK     0      52.656  22.089  26.773  0.00  0.00     0.210 HD
ENDBRANCH  21  27
BRANCH  22  29
HETATM   29  O   UNK     0      50.094  22.756  27.894  0.00  0.00    -0.390 OA
HETATM   30  H   UNK     0      49.154  22.988  27.984  0.00  0.00     0.210 HD
ENDBRANCH  22  29
BRANCH  23  31
HETATM   31  O   UNK     0      48.464  23.606  25.602  0.00  0.00    -0.390 OA
HETATM   32  H   UNK     0      48.111  23.655  24.698  0.00  0.00     0.210 HD
ENDBRANCH  23  31
ENDBRANCH   2  18
TORSDOF 10
ENDMDL
MODEL 9
REMARK VINA RESULT:      -6.3      3.155      4.089
REMARK  10 active torsions:
REMARK  status: ('A' for Active; 'I' for Inactive)
REMARK    1  A    between atoms: O_3  and  C_8 
REMARK    2  A    between atoms: O_4  and  C_9 
REMARK    3  A    between atoms: O_5  and  C_10 
REMARK    4  A    between atoms: O_6  and  C_14 
REMARK    5  A    between atoms: O_7  and  C_26 
REMARK    6  A    between atoms: O_7  and  C_27 
REMARK    7  A    between atoms: C_11  and  C_13 
REMARK    8  A    between atoms: C_12  and  C_14 
REMARK    9  A    between atoms: C_17  and  C_19 
REMARK   10  A    between atoms: C_19  and  C_21 
ROOT
HETATM    1 Cl   UNK     0      39.456  60.724  51.774  0.00  0.00    -0.084 Cl
HETATM    2  C   UNK     0      37.022  64.075  53.566  0.00  0.00    -0.026 A 
HETATM    3  C   UNK     0      38.392  64.014  53.815  0.00  0.00     0.019 A 
HETATM    4  C   UNK     0      36.413  63.108  52.768  0.00  0.00     0.011 A 
HETATM    5  C   UNK     0      39.154  62.983  53.267  0.00  0.00    -0.032 A 
HETATM    6  C   UNK     0      37.174  62.077  52.220  0.00  0.00     0.025 A 
HETATM    7  C   UNK     0      38.545  62.014  52.469  0.00  0.00     0.040 A 
ENDROOT
BRANCH   5   8
HETATM    8  C   UNK     0      40.620  62.951  53.558  0.00  0.00     0.078 C 
BRANCH   8   9
HETATM    9  C   UNK     0      41.451  63.787  52.608  0.00  0.00    -0.054 A 
HETATM   10  C   UNK     0      41.862  63.237  51.407  0.00  0.00     0.010 A 
HETATM   11  C   UNK     0      42.628  64.008  50.533  0.00  0.00     0.037 A 
HETATM   12  C   UNK     0      42.970  65.317  50.874  0.00  0.00     0.068 A 
HETATM   13  C   UNK     0      42.547  65.854  52.089  0.00  0.00     0.037 A 
HETATM   14  C   UNK     0      41.781  65.083  52.964  0.00  0.00     0.010 A 
BRANCH  12  15
HETATM   15  O   UNK     0      43.716  66.069  50.019  0.00  0.00    -0.352 OA
BRANCH  15  16
HETATM   16  C   UNK     0      43.214  66.237  48.695  0.00  0.00     0.171 C 
HETATM   17  C   UNK     0      42.102  67.264  48.717  0.00  0.00     0.034 C 
ENDBRANCH  15  16
ENDBRANCH  12  15
ENDBRANCH   8   9
ENDBRANCH   5   8
BRANCH   2  18
HETATM   18  C   UNK     0      36.194  65.197  54.162  0.00  0.00     0.186 C 
HETATM   19  O   UNK     0      35.167  64.603  54.962  0.00  0.00    -0.368 OA
HETATM   20  C   UNK     0      34.375  65.569  55.653  0.00  0.00     0.177 C 
HETATM   21  C   UNK     0      33.642  66.460  54.648  0.00  0.00     0.180 C 
HETATM   22  C   UNK     0      34.630  67.126  53.691  0.00  0.00     0.181 C 
HETATM   23  C   UNK     0      35.587  66.101  53.077  0.00  0.00     0.182 C 
BRANCH  20  24
HETATM   24  C   UNK     0      33.404  64.809  56.549  0.00  0.00     0.198 C 
BRANCH  24  25
HETATM   25  O   UNK     0      32.816  65.724  57.457  0.00  0.00    -0.398 OA
HETATM   26  H   UNK     0      31.943  65.376  57.702  0.00  0.00     0.209 HD
ENDBRANCH  24  25
ENDBRANCH  20  24
BRANCH  21  27
HETATM   27  O   UNK     0      32.918  67.466  55.353  0.00  0.00    -0.390 OA
HETATM   28  H   UNK     0      32.771  68.211  54.747  0.00  0.00     0.210 HD
ENDBRANCH  21  27
BRANCH  22  29
HETATM   29  O   UNK     0      33.880  67.757  52.652  0.00  0.00    -0.390 OA
HETATM   30  H   UNK     0      33.457  68.543  53.035  0.00  0.00     0.210 HD
ENDBRANCH  22  29
BRANCH  23  31
HETATM   31  O   UNK     0      36.645  66.793  52.414  0.00  0.00    -0.390 OA
HETATM   32  H   UNK     0      37.420  66.207  52.390  0.00  0.00     0.210 HD
ENDBRANCH  23  31
ENDBRANCH   2  18
TORSDOF 10
ENDMDL
