REMARK VINA RESULT:      -6.3      3.155      4.089
REMARK  10 active torsions:
REMARK  status: ('A' for Active; 'I' for Inactive)
REMARK    1  A    between atoms: O_3  and  C_8 
REMARK    2  A    between atoms: O_4  and  C_9 
REMARK    3  A    between atoms: O_5  and  C_10 
REMARK    4  A    between atoms: O_6  and  C_14 
REMARK    5  A    between atoms: O_7  and  C_26 
REMARK    6  A    between atoms: O_7  and  C_27 
REMARK    7  A    between atoms: C_11  and  C_13 
REMARK    8  A    between atoms: C_12  and  C_14 
REMARK    9  A    between atoms: C_17  and  C_19 
REMARK   10  A    between atoms: C_19  and  C_21 
ROOT
HETATM    1 Cl   UNK     0      39.456  60.724  51.774  0.00  0.00    -0.084 Cl
HETATM    2  C   UNK     0      37.022  64.075  53.566  0.00  0.00    -0.026 A 
HETATM    3  C   UNK     0      38.392  64.014  53.815  0.00  0.00     0.019 A 
HETATM    4  C   UNK     0      36.413  63.108  52.768  0.00  0.00     0.011 A 
HETATM    5  C   UNK     0      39.154  62.983  53.267  0.00  0.00    -0.032 A 
HETATM    6  C   UNK     0      37.174  62.077  52.220  0.00  0.00     0.025 A 
HETATM    7  C   UNK     0      38.545  62.014  52.469  0.00  0.00     0.040 A 
ENDROOT
BRANCH   5   8
HETATM    8  C   UNK     0      40.620  62.951  53.558  0.00  0.00     0.078 C 
BRANCH   8   9
HETATM    9  C   UNK     0      41.451  63.787  52.608  0.00  0.00    -0.054 A 
HETATM   10  C   UNK     0      41.862  63.237  51.407  0.00  0.00     0.010 A 
HETATM   11  C   UNK     0      42.628  64.008  50.533  0.00  0.00     0.037 A 
HETATM   12  C   UNK     0      42.970  65.317  50.874  0.00  0.00     0.068 A 
HETATM   13  C   UNK     0      42.547  65.854  52.089  0.00  0.00     0.037 A 
HETATM   14  C   UNK     0      41.781  65.083  52.964  0.00  0.00     0.010 A 
BRANCH  12  15
HETATM   15  O   UNK     0      43.716  66.069  50.019  0.00  0.00    -0.352 OA
BRANCH  15  16
HETATM   16  C   UNK     0      43.214  66.237  48.695  0.00  0.00     0.171 C 
HETATM   17  C   UNK     0      42.102  67.264  48.717  0.00  0.00     0.034 C 
ENDBRANCH  15  16
ENDBRANCH  12  15
ENDBRANCH   8   9
ENDBRANCH   5   8
BRANCH   2  18
HETATM   18  C   UNK     0      36.194  65.197  54.162  0.00  0.00     0.186 C 
HETATM   19  O   UNK     0      35.167  64.603  54.962  0.00  0.00    -0.368 OA
HETATM   20  C   UNK     0      34.375  65.569  55.653  0.00  0.00     0.177 C 
HETATM   21  C   UNK     0      33.642  66.460  54.648  0.00  0.00     0.180 C 
HETATM   22  C   UNK     0      34.630  67.126  53.691  0.00  0.00     0.181 C 
HETATM   23  C   UNK     0      35.587  66.101  53.077  0.00  0.00     0.182 C 
BRANCH  20  24
HETATM   24  C   UNK     0      33.404  64.809  56.549  0.00  0.00     0.198 C 
BRANCH  24  25
HETATM   25  O   UNK     0      32.816  65.724  57.457  0.00  0.00    -0.398 OA
HETATM   26  H   UNK     0      31.943  65.376  57.702  0.00  0.00     0.209 HD
ENDBRANCH  24  25
ENDBRANCH  20  24
BRANCH  21  27
HETATM   27  O   UNK     0      32.918  67.466  55.353  0.00  0.00    -0.390 OA
HETATM   28  H   UNK     0      32.771  68.211  54.747  0.00  0.00     0.210 HD
ENDBRANCH  21  27
BRANCH  22  29
HETATM   29  O   UNK     0      33.880  67.757  52.652  0.00  0.00    -0.390 OA
HETATM   30  H   UNK     0      33.457  68.543  53.035  0.00  0.00     0.210 HD
ENDBRANCH  22  29
BRANCH  23  31
HETATM   31  O   UNK     0      36.645  66.793  52.414  0.00  0.00    -0.390 OA
HETATM   32  H   UNK     0      37.420  66.207  52.390  0.00  0.00     0.210 HD
ENDBRANCH  23  31
ENDBRANCH   2  18
TORSDOF 10
