REMARK VINA RESULT:      -6.4     36.027     38.539
REMARK  10 active torsions:
REMARK  status: ('A' for Active; 'I' for Inactive)
REMARK    1  A    between atoms: O_3  and  C_8 
REMARK    2  A    between atoms: O_4  and  C_9 
REMARK    3  A    between atoms: O_5  and  C_10 
REMARK    4  A    between atoms: O_6  and  C_14 
REMARK    5  A    between atoms: O_7  and  C_26 
REMARK    6  A    between atoms: O_7  and  C_27 
REMARK    7  A    between atoms: C_11  and  C_13 
REMARK    8  A    between atoms: C_12  and  C_14 
REMARK    9  A    between atoms: C_17  and  C_19 
REMARK   10  A    between atoms: C_19  and  C_21 
ROOT
HETATM    1 Cl   UNK     0      19.602  31.047  34.346  0.00  0.00    -0.084 Cl
HETATM    2  C   UNK     0      19.267  30.670  38.831  0.00  0.00    -0.026 A 
HETATM    3  C   UNK     0      19.694  31.875  38.274  0.00  0.00     0.019 A 
HETATM    4  C   UNK     0      18.946  29.594  38.006  0.00  0.00     0.011 A 
HETATM    5  C   UNK     0      19.802  32.003  36.890  0.00  0.00    -0.032 A 
HETATM    6  C   UNK     0      19.054  29.721  36.621  0.00  0.00     0.025 A 
HETATM    7  C   UNK     0      19.482  30.926  36.063  0.00  0.00     0.040 A 
ENDROOT
BRANCH   5   8
HETATM    8  C   UNK     0      20.263  33.311  36.331  0.00  0.00     0.078 C 
BRANCH   8   9
HETATM    9  C   UNK     0      20.800  34.267  37.375  0.00  0.00    -0.054 A 
HETATM   10  C   UNK     0      22.165  34.339  37.586  0.00  0.00     0.010 A 
HETATM   11  C   UNK     0      22.658  35.219  38.549  0.00  0.00     0.037 A 
HETATM   12  C   UNK     0      21.778  36.013  39.285  0.00  0.00     0.068 A 
HETATM   13  C   UNK     0      20.405  35.926  39.058  0.00  0.00     0.037 A 
HETATM   14  C   UNK     0      19.911  35.045  38.095  0.00  0.00     0.010 A 
BRANCH  12  15
HETATM   15  O   UNK     0      22.261  36.873  40.224  0.00  0.00    -0.352 OA
BRANCH  15  16
HETATM   16  C   UNK     0      21.821  38.228  40.150  0.00  0.00     0.171 C 
HETATM   17  C   UNK     0      22.540  38.917  39.009  0.00  0.00     0.034 C 
ENDBRANCH  15  16
ENDBRANCH  12  15
ENDBRANCH   8   9
ENDBRANCH   5   8
BRANCH   2  18
HETATM   18  C   UNK     0      19.149  30.532  40.336  0.00  0.00     0.186 C 
HETATM   19  O   UNK     0      20.259  29.751  40.790  0.00  0.00    -0.368 OA
HETATM   20  C   UNK     0      20.307  29.630  42.212  0.00  0.00     0.177 C 
HETATM   21  C   UNK     0      19.062  28.898  42.717  0.00  0.00     0.180 C 
HETATM   22  C   UNK     0      17.789  29.609  42.257  0.00  0.00     0.181 C 
HETATM   23  C   UNK     0      17.819  29.884  40.751  0.00  0.00     0.182 C 
BRANCH  20  24
HETATM   24  C   UNK     0      21.586  28.880  42.565  0.00  0.00     0.198 C 
BRANCH  24  25
HETATM   25  O   UNK     0      22.219  29.550  43.641  0.00  0.00    -0.398 OA
HETATM   26  H   UNK     0      21.728  29.333  44.452  0.00  0.00     0.209 HD
ENDBRANCH  24  25
ENDBRANCH  20  24
BRANCH  21  27
HETATM   27  O   UNK     0      19.089  28.855  44.142  0.00  0.00    -0.390 OA
HETATM   28  H   UNK     0      20.005  29.004  44.429  0.00  0.00     0.210 HD
ENDBRANCH  21  27
BRANCH  22  29
HETATM   29  O   UNK     0      16.678  28.767  42.564  0.00  0.00    -0.390 OA
HETATM   30  H   UNK     0      16.039  28.852  41.836  0.00  0.00     0.210 HD
ENDBRANCH  22  29
BRANCH  23  31
HETATM   31  O   UNK     0      16.754  30.775  40.421  0.00  0.00    -0.390 OA
HETATM   32  H   UNK     0      16.000  30.572  41.000  0.00  0.00     0.210 HD
ENDBRANCH  23  31
ENDBRANCH   2  18
TORSDOF 10
