REMARK VINA RESULT:      -6.6      5.257     10.053
REMARK  10 active torsions:
REMARK  status: ('A' for Active; 'I' for Inactive)
REMARK    1  A    between atoms: O_3  and  C_8 
REMARK    2  A    between atoms: O_4  and  C_9 
REMARK    3  A    between atoms: O_5  and  C_10 
REMARK    4  A    between atoms: O_6  and  C_14 
REMARK    5  A    between atoms: O_7  and  C_26 
REMARK    6  A    between atoms: O_7  and  C_27 
REMARK    7  A    between atoms: C_11  and  C_13 
REMARK    8  A    between atoms: C_12  and  C_14 
REMARK    9  A    between atoms: C_17  and  C_19 
REMARK   10  A    between atoms: C_19  and  C_21 
ROOT
HETATM    1 Cl   UNK     0      40.545  62.909  54.079  0.00  0.00    -0.084 Cl
HETATM    2  C   UNK     0      43.855  60.789  51.862  0.00  0.00    -0.026 A 
HETATM    3  C   UNK     0      42.624  60.980  51.236  0.00  0.00     0.019 A 
HETATM    4  C   UNK     0      44.058  61.251  53.161  0.00  0.00     0.011 A 
HETATM    5  C   UNK     0      41.594  61.633  51.912  0.00  0.00    -0.032 A 
HETATM    6  C   UNK     0      43.029  61.904  53.837  0.00  0.00     0.025 A 
HETATM    7  C   UNK     0      41.796  62.096  53.212  0.00  0.00     0.040 A 
ENDROOT
BRANCH   5   8
HETATM    8  C   UNK     0      40.288  61.819  51.208  0.00  0.00     0.078 C 
BRANCH   8   9
HETATM    9  C   UNK     0      39.207  60.861  51.661  0.00  0.00    -0.054 A 
HETATM   10  C   UNK     0      39.569  59.683  52.290  0.00  0.00     0.010 A 
HETATM   11  C   UNK     0      38.572  58.801  52.706  0.00  0.00     0.037 A 
HETATM   12  C   UNK     0      37.230  59.111  52.488  0.00  0.00     0.068 A 
HETATM   13  C   UNK     0      36.884  60.303  51.852  0.00  0.00     0.037 A 
HETATM   14  C   UNK     0      37.881  61.186  51.435  0.00  0.00     0.010 A 
BRANCH  12  15
HETATM   15  O   UNK     0      36.258  58.250  52.896  0.00  0.00    -0.352 OA
BRANCH  15  16
HETATM   16  C   UNK     0      36.236  57.904  54.280  0.00  0.00     0.171 C 
HETATM   17  C   UNK     0      35.551  56.564  54.443  0.00  0.00     0.034 C 
ENDBRANCH  15  16
ENDBRANCH  12  15
ENDBRANCH   8   9
ENDBRANCH   5   8
BRANCH   2  18
HETATM   18  C   UNK     0      44.976  60.079  51.126  0.00  0.00     0.186 C 
HETATM   19  O   UNK     0      45.585  59.163  52.042  0.00  0.00    -0.368 OA
HETATM   20  C   UNK     0      46.600  58.365  51.433  0.00  0.00     0.177 C 
HETATM   21  C   UNK     0      47.738  59.257  50.933  0.00  0.00     0.180 C 
HETATM   22  C   UNK     0      47.211  60.323  49.973  0.00  0.00     0.181 C 
HETATM   23  C   UNK     0      46.013  61.066  50.569  0.00  0.00     0.182 C 
BRANCH  20  24
HETATM   24  C   UNK     0      47.083  57.363  52.476  0.00  0.00     0.198 C 
BRANCH  24  25
HETATM   25  O   UNK     0      47.895  56.397  51.831  0.00  0.00    -0.398 OA
HETATM   26  H   UNK     0      47.687  55.531  52.222  0.00  0.00     0.209 HD
ENDBRANCH  24  25
ENDBRANCH  20  24
BRANCH  21  27
HETATM   27  O   UNK     0      48.705  58.453  50.261  0.00  0.00    -0.390 OA
HETATM   28  H   UNK     0      49.561  58.582  50.702  0.00  0.00     0.210 HD
ENDBRANCH  21  27
BRANCH  22  29
HETATM   29  O   UNK     0      48.267  61.251  49.721  0.00  0.00    -0.390 OA
HETATM   30  H   UNK     0      47.878  62.142  49.723  0.00  0.00     0.210 HD
ENDBRANCH  22  29
BRANCH  23  31
HETATM   31  O   UNK     0      45.396  61.848  49.547  0.00  0.00    -0.390 OA
HETATM   32  H   UNK     0      45.692  61.507  48.686  0.00  0.00     0.210 HD
ENDBRANCH  23  31
ENDBRANCH   2  18
TORSDOF 10
