REMARK VINA RESULT:      -6.8     39.509     42.031
REMARK  10 active torsions:
REMARK  status: ('A' for Active; 'I' for Inactive)
REMARK    1  A    between atoms: O_3  and  C_8 
REMARK    2  A    between atoms: O_4  and  C_9 
REMARK    3  A    between atoms: O_5  and  C_10 
REMARK    4  A    between atoms: O_6  and  C_14 
REMARK    5  A    between atoms: O_7  and  C_26 
REMARK    6  A    between atoms: O_7  and  C_27 
REMARK    7  A    between atoms: C_11  and  C_13 
REMARK    8  A    between atoms: C_12  and  C_14 
REMARK    9  A    between atoms: C_17  and  C_19 
REMARK   10  A    between atoms: C_19  and  C_21 
ROOT
HETATM    1 Cl   UNK     0      51.408  26.131  55.374  0.00  0.00    -0.084 Cl
HETATM    2  C   UNK     0      48.794  24.319  58.576  0.00  0.00    -0.026 A 
HETATM    3  C   UNK     0      48.605  23.948  57.245  0.00  0.00     0.019 A 
HETATM    4  C   UNK     0      49.784  25.241  58.911  0.00  0.00     0.011 A 
HETATM    5  C   UNK     0      49.407  24.502  56.248  0.00  0.00    -0.032 A 
HETATM    6  C   UNK     0      50.585  25.796  57.913  0.00  0.00     0.025 A 
HETATM    7  C   UNK     0      50.397  25.426  56.582  0.00  0.00     0.040 A 
ENDROOT
BRANCH   5   8
HETATM    8  C   UNK     0      49.173  24.079  54.833  0.00  0.00     0.078 C 
BRANCH   8   9
HETATM    9  C   UNK     0      49.640  22.671  54.531  0.00  0.00    -0.054 A 
HETATM   10  C   UNK     0      50.965  22.456  54.195  0.00  0.00     0.010 A 
HETATM   11  C   UNK     0      51.394  21.159  53.915  0.00  0.00     0.037 A 
HETATM   12  C   UNK     0      50.491  20.097  53.976  0.00  0.00     0.068 A 
HETATM   13  C   UNK     0      49.159  20.333  54.316  0.00  0.00     0.037 A 
HETATM   14  C   UNK     0      48.730  21.631  54.596  0.00  0.00     0.010 A 
BRANCH  12  15
HETATM   15  O   UNK     0      50.911  18.831  53.704  0.00  0.00    -0.352 OA
BRANCH  15  16
HETATM   16  C   UNK     0      50.336  17.777  54.475  0.00  0.00     0.171 C 
HETATM   17  C   UNK     0      49.718  16.762  53.537  0.00  0.00     0.034 C 
ENDBRANCH  15  16
ENDBRANCH  12  15
ENDBRANCH   8   9
ENDBRANCH   5   8
BRANCH   2  18
HETATM   18  C   UNK     0      47.923  23.716  59.661  0.00  0.00     0.186 C 
HETATM   19  O   UNK     0      48.425  22.406  59.945  0.00  0.00    -0.368 OA
HETATM   20  C   UNK     0      47.737  21.771  61.022  0.00  0.00     0.177 C 
HETATM   21  C   UNK     0      46.264  21.571  60.658  0.00  0.00     0.180 C 
HETATM   22  C   UNK     0      45.612  22.901  60.282  0.00  0.00     0.181 C 
HETATM   23  C   UNK     0      46.445  23.656  59.243  0.00  0.00     0.182 C 
BRANCH  20  24
HETATM   24  C   UNK     0      48.437  20.444  61.295  0.00  0.00     0.198 C 
BRANCH  24  25
HETATM   25  O   UNK     0      48.217  20.088  62.648  0.00  0.00    -0.398 OA
HETATM   26  H   UNK     0      48.112  19.122  62.684  0.00  0.00     0.209 HD
ENDBRANCH  24  25
ENDBRANCH  20  24
BRANCH  21  27
HETATM   27  O   UNK     0      45.577  21.007  61.772  0.00  0.00    -0.390 OA
HETATM   28  H   UNK     0      46.132  20.298  62.140  0.00  0.00     0.210 HD
ENDBRANCH  21  27
BRANCH  22  29
HETATM   29  O   UNK     0      44.319  22.622  59.743  0.00  0.00    -0.390 OA
HETATM   30  H   UNK     0      43.812  23.451  59.762  0.00  0.00     0.210 HD
ENDBRANCH  22  29
BRANCH  23  31
HETATM   31  O   UNK     0      45.948  24.989  59.129  0.00  0.00    -0.390 OA
HETATM   32  H   UNK     0      44.977  24.952  59.151  0.00  0.00     0.210 HD
ENDBRANCH  23  31
ENDBRANCH   2  18
TORSDOF 10
